*SPEF "IEEE 1481.1999"
*DESIGN "spi_top"
*DATE "11:47:28 Saturday June 29, 2024"
*VENDOR "unknown"
*PROGRAM "qrouter"
*VERSION "unknown"
*DESIGN_FLOW "qflow"
*DIVIDER /
*DELIMITER :
*BUS_DELIMITER <>
*T_UNIT 1 PS
*C_UNIT 1 FF
*R_UNIT 1 OHM
*L_UNIT 1 HENRY

*NAME_MAP
*1 wb_clk_i_bF_buf1
*2 CLKBUF1_66
*3 CLKBUF1_34
*4 CLKBUF1_52
*5 CLKBUF1_28
*6 DFFSR_30
*7 DFFSR_89
*8 CLKBUF1_30
*9 DFFSR_90
*10 CLKBUF1_16
*11 CLKBUF1_33
*12 DFFSR_179
*13 CLKBUF1_42
*14 CLKBUF1_24
*15 DFFSR_194
*16 DFFSR_240
*17 DFFSR_195
*18 CLKBUF1_45
*19 wb_clk_i_bF_buf0
*20 CLKBUF1_67
*21 CLKBUF1_39
*22 CLKBUF1_31
*23 CLKBUF1_43
*24 CLKBUF1_14
*25 CLKBUF1_17
*26 DFFSR_60
*27 CLKBUF1_47
*28 DFFSR_45
*29 DFFSR_135
*30 CLKBUF1_19
*31 CLKBUF1_13
*32 DFFSR_44
*33 CLKBUF1_5
*34 DFFSR_119
*35 CLKBUF1_50
*36 CLKBUF1_1
*37 _191_
*38 AND2X2_3
*39 OAI21X1_99
*40 OAI21X1_105
*41 OAI21X1_95
*42 OAI21X1_103
*43 OAI21X1_101
*44 OAI21X1_107
*45 OAI21X1_109
*46 OAI21X1_97
*47 OAI21X1_125
*48 OAI21X1_111
*49 OAI21X1_123
*50 OAI21X1_117
*51 OAI21X1_121
*52 OAI21X1_115
*53 OAI21X1_119
*54 OAI21X1_113
*55 _383_
*56 INVX8_5
*57 AOI22X1_15
*58 AOI22X1_5
*59 AOI22X1_3
*60 AOI22X1_1
*61 AOI22X1_13
*62 AOI22X1_9
*63 AOI22X1_31
*64 AOI22X1_17
*65 AOI22X1_21
*66 AOI22X1_19
*67 AOI22X1_23
*68 AOI22X1_27
*69 AOI22X1_29
*70 AOI22X1_25
*71 AOI22X1_11
*72 AOI22X1_7
*73 _385_
*74 INVX8_6
*75 AOI22X1_8
*76 AOI22X1_10
*77 AOI22X1_14
*78 AOI22X1_2
*79 AOI22X1_6
*80 AOI22X1_4
*81 AOI22X1_16
*82 AOI22X1_11
*83 AOI22X1_18
*84 AOI22X1_30
*85 AOI22X1_24
*86 AOI22X1_22
*87 AOI22X1_27
*88 AOI22X1_20
*89 AOI22X1_32
*90 AOI22X1_26
*91 _1631_
*92 INVX8_9
*93 NAND2X1_114
*94 AOI21X1_53
*95 OAI21X1_276
*96 AOI21X1_41
*97 OAI21X1_182
*98 OAI21X1_183
*99 NAND2X1_109
*100 OAI21X1_286
*101 AOI21X1_49
*102 NOR2X1_184
*103 OAI21X1_284
*104 NAND2X1_151
*105 AOI21X1_48
*106 OAI21X1_199
*107 OAI21X1_204
*108 OAI21X1_279
*109 wb_clk_i
*110 CLKBUF1_53
*111 CLKBUF1_61
*112 CLKBUF1_64
*113 CLKBUF1_55
*114 CLKBUF1_63
*115 CLKBUF1_57
*116 CLKBUF1_60
*117 CLKBUF1_66
*118 CLKBUF1_67
*119 CLKBUF1_62
*120 CLKBUF1_54
*121 CLKBUF1_65
*122 CLKBUF1_59
*123 CLKBUF1_56
*124 CLKBUF1_58
*125 wb_adr_i[4]
*126 NAND3X1_70
*127 NAND3X1_74
*128 NAND3X1_72
*129 NAND3X1_77
*130 NAND3X1_85
*131 NAND3X1_35
*132 INVX2_39
*133 NOR2X1_4
*134 NAND3X1_81
*135 NOR3X1_1
*136 NAND2X1_34
*137 NAND3X1_79
*138 NAND3X1_83
*139 NAND3X1_2
*140 NAND3X1_50
*141 wb_adr_i[3]
*142 NAND3X1_69
*143 NAND3X1_73
*144 NAND3X1_71
*145 NAND3X1_76
*146 INVX2_17
*147 NAND3X1_67
*148 NAND3X1_75
*149 NAND2X1_34
*150 NOR3X1_1
*151 NAND3X1_2
*152 NAND3X1_84
*153 NAND3X1_82
*154 NAND3X1_78
*155 NAND3X1_80
*156 NOR2X1_3
*157 _142_
*158 INVX8_2
*159 NAND3X1_45
*160 NAND3X1_48
*161 NAND3X1_47
*162 NAND3X1_44
*163 NAND3X1_46
*164 NAND3X1_43
*165 NAND3X1_49
*166 NAND3X1_41
*167 AND2X2_2
*168 NAND3X1_42
*169 NAND3X1_39
*170 NAND3X1_40
*171 NAND3X1_36
*172 NAND3X1_38
*173 NAND3X1_37
*174 _245_
*175 NAND3X1_68
*176 OAI22X1_11
*177 OAI22X1_17
*178 OAI22X1_14
*179 OAI22X1_8
*180 OAI22X1_20
*181 OAI22X1_4
*182 OAI22X1_2
*183 OAI22X1_6
*184 NOR2X1_20
*185 OAI22X1_33
*186 OAI22X1_24
*187 OAI22X1_26
*188 OAI22X1_31
*189 OAI22X1_22
*190 OAI22X1_28
*191 _143_
*192 AND2X2_2
*193 OAI21X1_93
*194 OAI21X1_81
*195 OAI21X1_79
*196 OAI21X1_77
*197 OAI21X1_87
*198 OAI21X1_83
*199 OAI21X1_89
*200 OAI21X1_91
*201 OAI21X1_85
*202 OAI21X1_72
*203 OAI21X1_74
*204 OAI21X1_66
*205 OAI21X1_70
*206 OAI21X1_68
*207 _1687_
*208 INVX8_10
*209 NAND3X1_141
*210 NAND3X1_114
*211 NAND3X1_117
*212 NAND3X1_126
*213 NAND3X1_129
*214 NAND3X1_145
*215 NAND3X1_151
*216 NAND3X1_164
*217 NAND3X1_110
*218 NAND3X1_121
*219 NAND3X1_135
*220 NAND3X1_160
*221 NAND3X1_157
*222 NAND3X1_149
*223 _2195_
*224 NAND3X1_194
*225 AOI21X1_71
*226 AOI21X1_55
*227 AOI21X1_98
*228 AOI21X1_61
*229 AOI21X1_94
*230 AOI21X1_90
*231 AOI21X1_79
*232 AOI21X1_86
*233 NOR2X1_195
*234 NOR2X1_182
*235 AOI21X1_65
*236 AOI21X1_76
*237 AOI21X1_83
*238 AOI21X1_58
*239 _2239_
*240 NAND3X1_196
*241 AOI21X1_69
*242 AOI21X1_95
*243 AOI21X1_52
*244 AOI21X1_99
*245 AOI21X1_91
*246 AOI21X1_77
*247 AOI21X1_87
*248 NOR2X1_198
*249 NOR2X1_194
*250 AOI21X1_63
*251 AOI21X1_81
*252 AOI21X1_75
*253 AOI21X1_56
*254 AOI21X1_60
*255 _2254_
*256 OAI21X1_294
*257 INVX1_118
*258 AOI21X1_72
*259 AOI21X1_96
*260 AOI21X1_100
*261 AOI21X1_62
*262 AOI21X1_92
*263 NOR2X1_192
*264 AOI21X1_80
*265 AOI21X1_88
*266 NOR2X1_193
*267 AOI21X1_66
*268 AOI21X1_84
*269 AOI21X1_74
*270 AOI21X1_59
*271 _650_
*272 NOR2X1_196
*273 AOI22X1_65
*274 AOI22X1_76
*275 AOI22X1_72
*276 AOI22X1_60
*277 INVX8_23
*278 NAND2X1_311
*279 NAND2X1_321
*280 NAND2X1_319
*281 NAND2X1_341
*282 NAND2X1_314
*283 NAND2X1_323
*284 NAND2X1_317
*285 NAND2X1_327
*286 NAND2X1_325
*287 _653_
*288 NOR2X1_198
*289 INVX4_10
*290 AND2X2_30
*291 AOI22X1_64
*292 NAND2X1_273
*293 AOI22X1_61
*294 NAND2X1_270
*295 AOI22X1_71
*296 AOI22X1_75
*297 NAND2X1_276
*298 NAND2X1_279
*299 NAND2X1_278
*300 NAND2X1_335
*301 NAND2X1_271
*302 NAND2X1_274
*303 _1417_
*304 INVX8_23
*305 OAI21X1_703
*306 OR2X2_18
*307 OAI21X1_700
*308 OAI21X1_723
*309 OAI21X1_719
*310 OAI21X1_788
*311 OAI21X1_711
*312 NOR2X1_314
*313 NOR2X1_337
*314 NOR2X1_316
*315 OAI21X1_708
*316 OR2X2_19
*317 NOR2X1_319
*318 NOR2X1_318
*319 _1073__bF_buf10
*320 BUFX4_128
*321 DFFSR_152
*322 DFFSR_155
*323 DFFSR_120
*324 DFFSR_154
*325 DFFSR_139
*326 DFFSR_151
*327 DFFSR_122
*328 DFFSR_123
*329 DFFSR_136
*330 DFFSR_119
*331 DFFSR_218
*332 DFFSR_128
*333 DFFSR_168
*334 _1073__bF_buf9
*335 BUFX4_129
*336 DFFSR_235
*337 DFFSR_233
*338 DFFSR_220
*339 DFFSR_221
*340 DFFSR_200
*341 DFFSR_215
*342 DFFSR_230
*343 DFFSR_201
*344 DFFSR_231
*345 DFFSR_171
*346 DFFSR_189
*347 DFFSR_226
*348 DFFSR_203
*349 _1073__bF_buf8
*350 BUFX4_130
*351 DFFSR_248
*352 DFFSR_164
*353 DFFSR_121
*354 DFFSR_166
*355 DFFSR_228
*356 DFFSR_232
*357 DFFSR_149
*358 DFFSR_196
*359 DFFSR_247
*360 DFFSR_229
*361 DFFSR_214
*362 DFFSR_246
*363 DFFSR_202
*364 _1073__bF_buf7
*365 BUFX4_131
*366 DFFSR_172
*367 DFFSR_190
*368 DFFSR_195
*369 DFFSR_159
*370 DFFSR_188
*371 DFFSR_217
*372 DFFSR_167
*373 DFFSR_156
*374 DFFSR_157
*375 DFFSR_160
*376 DFFSR_192
*377 DFFSR_204
*378 DFFSR_191
*379 _1073__bF_buf6
*380 BUFX4_132
*381 DFFSR_116
*382 DFFSR_117
*383 DFFSR_148
*384 DFFSR_165
*385 DFFSR_180
*386 DFFSR_170
*387 DFFSR_132
*388 DFFSR_245
*389 DFFSR_253
*390 DFFSR_251
*391 DFFSR_250
*392 DFFSR_249
*393 DFFSR_252
*394 _1073__bF_buf5
*395 BUFX4_133
*396 DFFSR_124
*397 DFFSR_163
*398 DFFSR_161
*399 DFFSR_193
*400 DFFSR_129
*401 DFFSR_135
*402 DFFSR_125
*403 DFFSR_162
*404 DFFSR_126
*405 DFFSR_127
*406 DFFSR_158
*407 DFFSR_130
*408 DFFSR_131
*409 _2244_
*410 OAI21X1_291
*411 AOI21X1_70
*412 AOI21X1_97
*413 INVX1_117
*414 AOI21X1_101
*415 AOI21X1_93
*416 AOI21X1_89
*417 AOI21X1_78
*418 AOI21X1_73
*419 AOI21X1_57
*420 AOI21X1_82
*421 AOI21X1_64
*422 NOR2X1_196
*423 NOR2X1_197
*424 _643_
*425 NOR2X1_192
*426 AOI22X1_58
*427 AOI22X1_64
*428 AOI22X1_71
*429 NAND2X1_298
*430 NAND2X1_296
*431 NAND2X1_338
*432 INVX8_22
*433 NAND2X1_290
*434 NAND2X1_299
*435 NAND2X1_303
*436 NAND2X1_305
*437 NAND2X1_292
*438 AOI22X1_75
*439 _645_
*440 NOR2X1_193
*441 NAND2X1_250
*442 INVX4_7
*443 AND2X2_23
*444 AOI22X1_73
*445 AOI22X1_62
*446 AOI22X1_69
*447 NAND2X1_249
*448 NAND2X1_248
*449 AOI22X1_59
*450 NAND2X1_252
*451 NAND2X1_332
*452 NAND2X1_253
*453 NAND2X1_251
*454 _652_
*455 NOR2X1_197
*456 AND2X2_24
*457 INVX4_8
*458 NAND2X1_256
*459 AOI22X1_63
*460 NAND2X1_255
*461 AOI22X1_70
*462 NAND2X1_254
*463 AOI22X1_74
*464 AOI22X1_61
*465 AND2X2_32
*466 AND2X2_27
*467 AND2X2_25
*468 AND2X2_26
*469 _705__bF_buf10
*470 BUFX4_57
*471 AOI21X1_199
*472 AOI21X1_249
*473 AOI21X1_160
*474 AOI21X1_253
*475 OAI21X1_510
*476 OAI21X1_507
*477 OAI21X1_620
*478 AOI21X1_181
*479 AOI21X1_219
*480 AOI21X1_174
*481 AOI21X1_175
*482 AOI21X1_180
*483 _705__bF_buf9
*484 BUFX4_58
*485 OAI21X1_684
*486 OAI21X1_630
*487 OAI21X1_668
*488 NOR2X1_322
*489 AOI21X1_240
*490 AOI21X1_233
*491 AOI21X1_200
*492 AOI21X1_211
*493 OAI21X1_671
*494 OAI21X1_591
*495 AOI21X1_187
*496 AOI21X1_169
*497 _705__bF_buf8
*498 BUFX4_59
*499 OAI21X1_366
*500 OAI21X1_778
*501 OAI21X1_468
*502 OAI21X1_760
*503 AOI21X1_135
*504 OAI21X1_472
*505 OAI21X1_368
*506 AOI21X1_140
*507 AOI21X1_251
*508 AOI21X1_136
*509 AOI21X1_119
*510 AOI21X1_112
*511 _705__bF_buf7
*512 BUFX4_60
*513 AOI21X1_183
*514 AOI21X1_264
*515 OAI21X1_638
*516 OAI21X1_677
*517 OAI21X1_720
*518 OAI21X1_636
*519 OAI21X1_784
*520 AOI21X1_167
*521 AOI21X1_184
*522 OAI21X1_421
*523 OAI21X1_712
*524 OAI21X1_789
*525 _705__bF_buf6
*526 BUFX4_61
*527 AOI21X1_186
*528 OAI21X1_491
*529 AOI21X1_188
*530 AOI21X1_210
*531 AOI21X1_212
*532 NOR2X1_320
*533 NOR2X1_323
*534 NOR2X1_324
*535 NOR2X1_313
*536 AOI21X1_242
*537 AOI21X1_241
*538 NOR2X1_311
*539 _705__bF_buf5
*540 BUFX4_62
*541 NOR2X1_315
*542 OAI21X1_622
*543 OAI21X1_769
*544 OAI21X1_709
*545 NAND2X1_334
*546 NAND2X1_287
*547 NAND2X1_284
*548 NAND2X1_286
*549 NAND2X1_309
*550 NAND2X1_310
*551 NAND2X1_285
*552 OAI21X1_612
*553 _705__bF_buf4
*554 BUFX4_63
*555 NOR2X1_338
*556 NOR2X1_304
*557 NOR2X1_306
*558 AOI21X1_197
*559 AOI21X1_252
*560 AOI21X1_157
*561 OAI21X1_564
*562 OAI21X1_562
*563 AOI21X1_196
*564 AOI21X1_154
*565 AOI21X1_198
*566 NOR2X1_297
*567 _1073__bF_buf4
*568 BUFX4_134
*569 DFFSR_150
*570 DFFSR_118
*571 DFFSR_169
*572 DFFSR_244
*573 DFFSR_153
*574 DFFSR_133
*575 DFFSR_137
*576 DFFSR_138
*577 DFFSR_182
*578 DFFSR_134
*579 DFFSR_181
*580 DFFSR_197
*581 _1073__bF_buf3
*582 BUFX4_135
*583 DFFSR_183
*584 DFFSR_234
*585 DFFSR_213
*586 DFFSR_187
*587 DFFSR_198
*588 DFFSR_186
*589 DFFSR_216
*590 DFFSR_212
*591 DFFSR_219
*592 DFFSR_184
*593 DFFSR_185
*594 DFFSR_199
*595 _1073__bF_buf2
*596 BUFX4_136
*597 DFFSR_143
*598 DFFSR_140
*599 DFFSR_141
*600 DFFSR_142
*601 DFFSR_144
*602 DFFSR_145
*603 DFFSR_147
*604 DFFSR_179
*605 DFFSR_174
*606 DFFSR_146
*607 DFFSR_206
*608 DFFSR_177
*609 _1073__bF_buf1
*610 BUFX4_137
*611 DFFSR_173
*612 DFFSR_178
*613 DFFSR_207
*614 DFFSR_208
*615 DFFSR_240
*616 DFFSR_205
*617 DFFSR_238
*618 DFFSR_223
*619 DFFSR_194
*620 DFFSR_176
*621 DFFSR_211
*622 DFFSR_175
*623 _1073__bF_buf0
*624 BUFX4_138
*625 DFFSR_243
*626 DFFSR_227
*627 DFFSR_241
*628 DFFSR_224
*629 DFFSR_225
*630 DFFSR_209
*631 DFFSR_242
*632 DFFSR_236
*633 DFFSR_239
*634 DFFSR_210
*635 DFFSR_222
*636 DFFSR_237
*637 shift_cnt[1]
*638 DFFSR_247
*639 OAI21X1_792
*640 NOR2X1_47
*641 OAI21X1_188
*642 NAND2X1_147
*643 INVX1_104
*644 XNOR2X1_3
*645 NAND3X1_173
*646 OR2X2_8
*647 NAND2X1_133
*648 NAND3X1_170
*649 AND2X2_9
*650 OAI21X1_187
*651 _2197_
*652 INVX8_14
*653 NOR2X1_327
*654 NOR2X1_206
*655 NOR2X1_209
*656 NOR2X1_208
*657 NOR2X1_188
*658 NOR2X1_207
*659 NOR2X1_210
*660 NOR2X1_204
*661 NOR2X1_216
*662 NOR2X1_211
*663 NOR2X1_212
*664 NOR2X1_215
*665 _649_
*666 NOR2X1_195
*667 INVX4_9
*668 AOI22X1_69
*669 AND2X2_28
*670 AOI22X1_62
*671 AND2X2_29
*672 AOI22X1_74
*673 NAND2X1_259
*674 AND2X2_31
*675 AOI22X1_60
*676 NAND2X1_266
*677 NAND2X1_265
*678 NAND2X1_258
*679 _844_
*680 INVX8_17
*681 NOR2X1_220
*682 NOR2X1_226
*683 NOR2X1_228
*684 NOR2X1_225
*685 OR2X2_21
*686 OR2X2_13
*687 OR2X2_12
*688 NOR2X1_224
*689 NOR2X1_223
*690 NOR2X1_219
*691 NOR2X1_222
*692 NOR2X1_326
*693 _1323_
*694 INVX8_22
*695 OAI21X1_783
*696 OAI21X1_667
*697 OAI21X1_676
*698 OAI21X1_681
*699 NOR2X1_303
*700 NOR2X1_299
*701 NOR2X1_332
*702 NOR2X1_298
*703 NOR2X1_305
*704 NOR2X1_301
*705 NOR2X1_300
*706 NOR2X1_296
*707 _705_
*708 AOI21X1_102
*709 BUFX4_67
*710 BUFX4_65
*711 BUFX4_63
*712 BUFX4_62
*713 BUFX4_64
*714 BUFX4_60
*715 BUFX4_58
*716 BUFX4_61
*717 BUFX4_57
*718 BUFX4_59
*719 BUFX4_66
*720 _705__bF_buf3
*721 BUFX4_64
*722 OAI21X1_628
*723 AOI21X1_226
*724 OAI21X1_593
*725 OAI21X1_595
*726 OAI21X1_772
*727 OAI21X1_704
*728 NOR2X1_317
*729 OAI21X1_701
*730 OAI21X1_682
*731 NOR2X1_321
*732 OAI21X1_614
*733 _705__bF_buf2
*734 BUFX4_65
*735 AOI21X1_105
*736 AOI21X1_103
*737 AOI21X1_109
*738 AOI21X1_108
*739 OAI21X1_449
*740 AOI21X1_189
*741 OAI21X1_439
*742 OAI21X1_435
*743 AOI21X1_107
*744 AOI21X1_104
*745 AOI21X1_110
*746 _705__bF_buf1
*747 BUFX4_66
*748 AOI21X1_111
*749 OAI21X1_430
*750 AOI21X1_120
*751 OAI21X1_428
*752 OAI21X1_465
*753 OAI21X1_380
*754 OAI21X1_432
*755 AOI21X1_256
*756 AOI21X1_185
*757 AOI21X1_182
*758 AOI21X1_168
*759 _705__bF_buf0
*760 BUFX4_67
*761 AOI21X1_128
*762 AOI21X1_134
*763 OAI21X1_382
*764 OAI21X1_394
*765 OAI21X1_457
*766 OAI21X1_494
*767 AOI21X1_250
*768 AOI21X1_132
*769 AOI21X1_127
*770 AOI21X1_106
*771 AOI21X1_133
*772 _1073_
*773 INVX8_24
*774 BUFX4_133
*775 BUFX4_131
*776 BUFX4_137
*777 BUFX4_138
*778 BUFX4_129
*779 BUFX4_135
*780 BUFX4_130
*781 BUFX4_132
*782 BUFX4_134
*783 BUFX4_128
*784 BUFX4_136
*785 _231__bF_buf8
*786 BUFX4_139
*787 DFFSR_5
*788 DFFSR_4
*789 DFFSR_40
*790 DFFSR_1
*791 DFFSR_35
*792 DFFSR_38
*793 DFFSR_21
*794 DFFSR_23
*795 DFFSR_19
*796 DFFSR_36
*797 DFFSR_68
*798 _231__bF_buf7
*799 BUFX4_140
*800 DFFSR_47
*801 DFFSR_13
*802 DFFSR_14
*803 DFFSR_74
*804 DFFSR_12
*805 DFFSR_45
*806 DFFSR_10
*807 DFFSR_53
*808 DFFSR_43
*809 DFFSR_73
*810 DFFSR_44
*811 _231__bF_buf6
*812 BUFX4_141
*813 DFFSR_55
*814 DFFSR_46
*815 DFFSR_57
*816 DFFSR_78
*817 DFFSR_59
*818 DFFSR_60
*819 DFFSR_58
*820 DFFSR_75
*821 DFFSR_62
*822 DFFSR_56
*823 DFFSR_76
*824 _231__bF_buf5
*825 BUFX4_142
*826 DFFSR_50
*827 DFFSR_8
*828 DFFSR_9
*829 DFFSR_54
*830 DFFSR_84
*831 DFFSR_72
*832 DFFSR_52
*833 DFFSR_15
*834 DFFSR_69
*835 DFFSR_48
*836 DFFSR_87
*837 _231__bF_buf4
*838 BUFX4_143
*839 DFFSR_27
*840 DFFSR_25
*841 DFFSR_28
*842 DFFSR_80
*843 DFFSR_30
*844 DFFSR_89
*845 DFFSR_79
*846 DFFSR_94
*847 DFFSR_26
*848 DFFSR_90
*849 DFFSR_92
*850 _231__bF_buf3
*851 BUFX4_144
*852 DFFSR_77
*853 DFFSR_6
*854 DFFSR_33
*855 DFFSR_18
*856 DFFSR_51
*857 DFFSR_34
*858 DFFSR_49
*859 DFFSR_64
*860 DFFSR_66
*861 DFFSR_63
*862 DFFSR_7
*863 _953__bF_buf9
*864 BUFX4_203
*865 AOI21X1_228
*866 NAND2X1_275
*867 NAND2X1_272
*868 OAI21X1_513
*869 OAI21X1_497
*870 OAI21X1_518
*871 AOI21X1_221
*872 OAI21X1_502
*873 AOI21X1_208
*874 AOI21X1_205
*875 AOI21X1_262
*876 _953__bF_buf8
*877 BUFX4_204
*878 NAND2X1_264
*879 NAND2X1_268
*880 NAND2X1_282
*881 NAND2X1_304
*882 NAND2X1_326
*883 NAND2X1_281
*884 NAND2X1_316
*885 NAND2X1_324
*886 NAND2X1_269
*887 OAI21X1_673
*888 NAND2X1_294
*889 _953__bF_buf7
*890 BUFX4_205
*891 NAND2X1_288
*892 NAND2X1_289
*893 NAND2X1_261
*894 NAND2X1_331
*895 NAND2X1_263
*896 OAI21X1_460
*897 OAI21X1_755
*898 OAI21X1_735
*899 NAND2X1_337
*900 NAND2X1_306
*901 AOI21X1_224
*902 _953__bF_buf6
*903 BUFX4_206
*904 NAND2X1_339
*905 OAI21X1_790
*906 NAND2X1_340
*907 OAI21X1_786
*908 AOI21X1_238
*909 AOI21X1_202
*910 OAI21X1_670
*911 NAND2X1_291
*912 NAND2X1_301
*913 OAI21X1_523
*914 OAI21X1_686
*915 _2094_
*916 INVX8_11
*917 OAI21X1_570
*918 NOR2X1_174
*919 OAI21X1_580
*920 OAI21X1_575
*921 OAI21X1_317
*922 OAI21X1_771
*923 OAI21X1_607
*924 OAI21X1_597
*925 OAI21X1_590
*926 OAI21X1_585
*927 OAI21X1_602
*928 _231__bF_buf2
*929 BUFX4_145
*930 DFFSR_24
*931 DFFSR_39
*932 DFFSR_2
*933 DFFSR_22
*934 DFFSR_82
*935 DFFSR_37
*936 DFFSR_41
*937 DFFSR_3
*938 DFFSR_71
*939 DFFSR_67
*940 _231__bF_buf1
*941 BUFX4_146
*942 DFFSR_17
*943 DFFSR_70
*944 DFFSR_65
*945 DFFSR_42
*946 DFFSR_86
*947 DFFSR_85
*948 DFFSR_88
*949 DFFSR_83
*950 DFFSR_20
*951 DFFSR_81
*952 _231__bF_buf0
*953 BUFX4_147
*954 DFFSR_32
*955 DFFSR_61
*956 DFFSR_16
*957 DFFSR_11
*958 DFFSR_29
*959 DFFSR_96
*960 DFFSR_31
*961 DFFSR_95
*962 DFFSR_93
*963 DFFSR_91
*964 _953_
*965 NOR2X1_234
*966 BUFX4_208
*967 BUFX4_206
*968 BUFX4_209
*969 BUFX4_203
*970 BUFX4_210
*971 BUFX4_205
*972 BUFX4_212
*973 BUFX4_207
*974 BUFX4_204
*975 BUFX4_211
*976 _953__bF_buf5
*977 BUFX4_207
*978 AOI21X1_243
*979 AOI22X1_78
*980 NAND2X1_283
*981 NAND2X1_262
*982 AOI21X1_191
*983 AOI21X1_194
*984 OAI21X1_442
*985 NAND2X1_260
*986 NAND2X1_257
*987 OAI21X1_452
*988 _953__bF_buf4
*989 BUFX4_208
*990 NAND2X1_320
*991 NAND2X1_297
*992 OAI21X1_683
*993 OAI21X1_702
*994 NAND2X1_308
*995 AOI21X1_235
*996 OAI21X1_714
*997 NAND2X1_315
*998 OAI21X1_721
*999 NAND2X1_318
*1000 _953__bF_buf3
*1001 BUFX4_209
*1002 OAI21X1_475
*1003 OAI21X1_533
*1004 AOI21X1_231
*1005 INVX8_21
*1006 OAI21X1_538
*1007 OAI21X1_763
*1008 NAND2X1_295
*1009 OAI21X1_678
*1010 OAI21X1_528
*1011 NAND2X1_336
*1012 _953__bF_buf2
*1013 BUFX4_210
*1014 AOI21X1_259
*1015 OAI21X1_710
*1016 NAND2X1_313
*1017 AOI21X1_217
*1018 NAND2X1_307
*1019 OAI21X1_706
*1020 NAND2X1_312
*1021 AOI21X1_214
*1022 AOI21X1_248
*1023 AOI22X1_83
*1024 _953__bF_buf1
*1025 BUFX4_211
*1026 OAI21X1_553
*1027 NAND2X1_277
*1028 NAND2X1_280
*1029 NAND2X1_322
*1030 OAI21X1_548
*1031 OAI21X1_486
*1032 OAI21X1_481
*1033 NAND2X1_302
*1034 NAND2X1_267
*1035 OAI21X1_543
*1036 _953__bF_buf0
*1037 BUFX4_212
*1038 AOI21X1_257
*1039 AOI22X1_84
*1040 AOI21X1_245
*1041 AOI22X1_81
*1042 AOI21X1_247
*1043 AOI22X1_82
*1044 AOI21X1_246
*1045 AOI22X1_80
*1046 AOI21X1_244
*1047 AOI22X1_79
*1048 clgen_pos_edge
*1049 DFFSR_97
*1050 OAI21X1_298
*1051 OAI21X1_181
*1052 NAND2X1_77
*1053 INVX1_21
*1054 INVX4_11
*1055 NOR2X1_342
*1056 OAI21X1_792
*1057 XNOR2X1_12
*1058 NOR2X1_341
*1059 OAI21X1_797
*1060 char_len[0]
*1061 DFFSR_33
*1062 INVX1_22
*1063 NAND3X1_70
*1064 NOR2X1_348
*1065 NAND2X1_342
*1066 OR2X2_10
*1067 NOR2X1_181
*1068 NOR2X1_184
*1069 OAI21X1_184
*1070 NOR2X1_52
*1071 OAI21X1_182
*1072 _278_
*1073 NAND3X1_75
*1074 OAI22X1_11
*1075 OAI22X1_17
*1076 INVX8_5
*1077 OAI22X1_14
*1078 OAI22X1_8
*1079 OAI22X1_33
*1080 OAI22X1_35
*1081 OAI22X1_38
*1082 NOR2X1_21
*1083 OAI22X1_28
*1084 shift_cnt[2]
*1085 DFFSR_248
*1086 NOR2X1_341
*1087 XNOR2X1_4
*1088 OAI21X1_191
*1089 NAND3X1_170
*1090 AND2X2_18
*1091 NAND2X1_139
*1092 OAI21X1_270
*1093 OAI21X1_192
*1094 INVX2_43
*1095 OAI21X1_187
*1096 shift_cnt[0]
*1097 DFFSR_246
*1098 INVX2_44
*1099 XNOR2X1_7
*1100 NAND2X1_133
*1101 NAND3X1_170
*1102 OR2X2_8
*1103 OAI21X1_187
*1104 NAND3X1_173
*1105 AND2X2_9
*1106 NOR2X1_47
*1107 XNOR2X1_12
*1108 shift_cnt[3]
*1109 DFFSR_249
*1110 NOR2X1_48
*1111 OAI21X1_191
*1112 NOR2X1_342
*1113 AOI21X1_47
*1114 OAI21X1_195
*1115 AND2X2_18
*1116 NAND2X1_139
*1117 OAI21X1_268
*1118 INVX2_48
*1119 NOR2X1_56
*1120 _2100_
*1121 INVX8_13
*1122 OAI21X1_272
*1123 OAI21X1_268
*1124 OAI21X1_270
*1125 NAND2X1_147
*1126 NAND2X1_131
*1127 NAND2X1_128
*1128 OAI21X1_276
*1129 OAI21X1_286
*1130 AOI21X1_50
*1131 AOI21X1_42
*1132 _954_
*1133 INVX8_18
*1134 OAI21X1_675
*1135 NOR2X1_235
*1136 OAI21X1_664
*1137 OAI21X1_657
*1138 OAI21X1_656
*1139 OAI21X1_659
*1140 OAI21X1_658
*1141 OAI21X1_768
*1142 OAI21X1_653
*1143 OAI21X1_680
*1144 wb_sel_i[1_bF_buf7]
*1145 BUFX4_5
*1146 OAI21X1_98
*1147 NAND2X1_21
*1148 OAI21X1_65
*1149 NAND2X1_17
*1150 NAND2X1_237
*1151 NAND2X1_232
*1152 OAI21X1_707
*1153 OAI21X1_625
*1154 OAI21X1_511
*1155 wb_sel_i[1_bF_buf6]
*1156 BUFX4_6
*1157 OAI21X1_100
*1158 OAI21X1_41
*1159 OAI21X1_33
*1160 OAI21X1_67
*1161 NAND2X1_328
*1162 OAI21X1_629
*1163 OAI21X1_515
*1164 OAI21X1_403
*1165 OAI21X1_386
*1166 wb_sel_i[1_bF_buf5]
*1167 BUFX4_7
*1168 OAI21X1_102
*1169 NAND2X1_22
*1170 OAI21X1_69
*1171 NAND2X1_18
*1172 NAND2X1_238
*1173 NAND2X1_233
*1174 OAI21X1_693
*1175 OAI21X1_520
*1176 OAI21X1_743
*1177 wb_sel_i[1_bF_buf4]
*1178 BUFX4_8
*1179 OAI21X1_104
*1180 OAI21X1_43
*1181 OAI21X1_35
*1182 OAI21X1_71
*1183 OAI21X1_696
*1184 OAI21X1_613
*1185 OAI21X1_757
*1186 OAI21X1_408
*1187 OAI21X1_391
*1188 wb_sel_i[1_bF_buf3]
*1189 BUFX4_9
*1190 OAI21X1_699
*1191 OAI21X1_106
*1192 NAND2X1_23
*1193 OAI21X1_73
*1194 NAND2X1_19
*1195 NAND2X1_235
*1196 OAI21X1_615
*1197 OAI21X1_770
*1198 OAI21X1_495
*1199 wb_sel_i[1_bF_buf2]
*1200 BUFX4_10
*1201 OAI21X1_108
*1202 OAI21X1_37
*1203 MUX2X1_9
*1204 OAI21X1_780
*1205 OAI21X1_617
*1206 OAI21X1_499
*1207 OAI21X1_395
*1208 OAI21X1_45
*1209 OAI21X1_75
*1210 _7__bF_buf7
*1211 BUFX4_13
*1212 NAND3X1_62
*1213 NAND3X1_30
*1214 NAND3X1_34
*1215 NAND3X1_64
*1216 AND2X2_2
*1217 NAND3X1_60
*1218 NAND3X1_31
*1219 NAND3X1_59
*1220 NAND3X1_66
*1221 _955__bF_buf6
*1222 BUFX4_28
*1223 OAI21X1_538
*1224 OAI21X1_763
*1225 OAI21X1_543
*1226 OAI21X1_486
*1227 NOR2X1_310
*1228 NOR2X1_312
*1229 NOR2X1_308
*1230 OAI21X1_553
*1231 OAI21X1_481
*1232 _955__bF_buf5
*1233 BUFX4_29
*1234 OAI21X1_755
*1235 OAI21X1_460
*1236 OAI21X1_735
*1237 AOI21X1_193
*1238 AOI21X1_194
*1239 AOI21X1_191
*1240 OAI21X1_442
*1241 OAI21X1_452
*1242 AOI21X1_190
*1243 _1709__bF_buf6
*1244 BUFX4_40
*1245 NAND2X1_115
*1246 NOR2X1_90
*1247 NOR2X1_126
*1248 NOR2X1_138
*1249 NOR2X1_124
*1250 NOR2X1_88
*1251 NOR2X1_136
*1252 NOR2X1_84
*1253 NOR2X1_86
*1254 wb_sel_i[0_bF_buf7]
*1255 BUFX4_79
*1256 NAND2X1_239
*1257 NAND2X1_25
*1258 NAND2X1_244
*1259 OAI21X1_726
*1260 OAI21X1_639
*1261 OAI21X1_535
*1262 NAND2X1_29
*1263 OAI21X1_110
*1264 OAI21X1_78
*1265 wb_sel_i[0_bF_buf6]
*1266 BUFX4_80
*1267 OAI21X1_57
*1268 OAI21X1_112
*1269 OAI21X1_49
*1270 OAI21X1_80
*1271 OAI21X1_641
*1272 OAI21X1_413
*1273 OAI21X1_540
*1274 OAI21X1_429
*1275 OAI21X1_729
*1276 wb_sel_i[0_bF_buf5]
*1277 BUFX4_81
*1278 NAND2X1_26
*1279 NAND2X1_30
*1280 OAI21X1_82
*1281 OAI21X1_114
*1282 NAND2X1_240
*1283 NAND2X1_245
*1284 OAI21X1_732
*1285 OAI21X1_645
*1286 OAI21X1_545
*1287 wb_sel_i[0_bF_buf4]
*1288 BUFX4_82
*1289 OAI21X1_84
*1290 OAI21X1_51
*1291 OAI21X1_59
*1292 OAI21X1_649
*1293 OAI21X1_550
*1294 OAI21X1_431
*1295 OAI21X1_418
*1296 OAI21X1_116
*1297 NAND2X1_333
*1298 wb_sel_i[0_bF_buf3]
*1299 BUFX4_83
*1300 OAI21X1_118
*1301 OAI21X1_86
*1302 NAND2X1_27
*1303 NAND2X1_31
*1304 NAND2X1_242
*1305 OAI21X1_713
*1306 NAND2X1_247
*1307 OAI21X1_555
*1308 OAI21X1_765
*1309 wb_sel_i[0_bF_buf2]
*1310 BUFX4_84
*1311 OAI21X1_88
*1312 OAI21X1_61
*1313 OAI21X1_53
*1314 OAI21X1_120
*1315 OAI21X1_775
*1316 OAI21X1_631
*1317 OAI21X1_422
*1318 OAI21X1_433
*1319 OAI21X1_715
*1320 wb_sel_i[0_bF_buf1]
*1321 BUFX4_85
*1322 OAI21X1_90
*1323 NAND2X1_28
*1324 NAND2X1_32
*1325 OAI21X1_122
*1326 OAI21X1_718
*1327 NAND2X1_243
*1328 OAI21X1_633
*1329 OAI21X1_525
*1330 OAI21X1_779
*1331 wb_sel_i[0_bF_buf0]
*1332 BUFX4_86
*1333 OAI21X1_55
*1334 OAI21X1_63
*1335 OAI21X1_92
*1336 OAI21X1_124
*1337 OAI21X1_787
*1338 OAI21X1_530
*1339 OAI21X1_425
*1340 OAI21X1_637
*1341 OAI21X1_722
*1342 clgen_enable
*1343 DFFSR_245
*1344 BUFX4_98
*1345 BUFX4_96
*1346 BUFX4_104
*1347 BUFX4_102
*1348 BUFX4_103
*1349 BUFX4_97
*1350 BUFX4_99
*1351 BUFX4_100
*1352 BUFX4_101
*1353 clgen_enable_bF_buf8
*1354 BUFX4_96
*1355 NOR2X1_235
*1356 OAI21X1_653
*1357 OAI21X1_659
*1358 OAI21X1_658
*1359 OAI21X1_768
*1360 OAI21X1_570
*1361 OAI21X1_680
*1362 NOR2X1_234
*1363 OAI21X1_724
*1364 clgen_enable_bF_buf7
*1365 BUFX4_97
*1366 OAI21X1_151
*1367 OAI21X1_153
*1368 OAI21X1_154
*1369 OAI21X1_157
*1370 OAI21X1_156
*1371 OAI21X1_155
*1372 OAI21X1_158
*1373 OAI21X1_152
*1374 OAI21X1_160
*1375 clgen_enable_bF_buf6
*1376 BUFX4_98
*1377 OAI21X1_675
*1378 OAI21X1_585
*1379 OAI21X1_590
*1380 OAI21X1_597
*1381 OAI21X1_607
*1382 OAI21X1_471
*1383 OAI21X1_771
*1384 OAI21X1_476
*1385 OAI21X1_317
*1386 clgen_enable_bF_buf5
*1387 BUFX4_99
*1388 OAI21X1_575
*1389 OAI21X1_580
*1390 OAI21X1_736
*1391 OAI21X1_443
*1392 NOR2X1_201
*1393 OAI21X1_438
*1394 NOR2X1_174
*1395 OAI21X1_448
*1396 OAI21X1_434
*1397 clgen_enable_bF_buf4
*1398 BUFX4_100
*1399 OAI21X1_145
*1400 OAI21X1_146
*1401 OAI21X1_147
*1402 OAI21X1_148
*1403 NOR2X1_350
*1404 OAI21X1_143
*1405 INVX4_5
*1406 NOR2X1_344
*1407 NAND2X1_345
*1408 clgen_enable_bF_buf3
*1409 BUFX4_101
*1410 OAI21X1_794
*1411 OAI22X1_44
*1412 OAI22X1_43
*1413 OAI22X1_45
*1414 OAI21X1_797
*1415 OAI21X1_793
*1416 OAI22X1_42
*1417 OAI21X1_792
*1418 OAI21X1_602
*1419 clgen_enable_bF_buf2
*1420 BUFX4_102
*1421 OAI21X1_135
*1422 OAI21X1_134
*1423 OAI21X1_130
*1424 OAI21X1_141
*1425 OAI21X1_149
*1426 OAI21X1_139
*1427 OAI21X1_140
*1428 OAI21X1_138
*1429 OAI21X1_136
*1430 clgen_enable_bF_buf1
*1431 BUFX4_103
*1432 OAI21X1_132
*1433 OAI21X1_150
*1434 OAI21X1_129
*1435 OAI21X1_133
*1436 OAI21X1_131
*1437 NAND2X1_33
*1438 OAI21X1_127
*1439 OAI21X1_128
*1440 OAI21X1_144
*1441 clgen_enable_bF_buf0
*1442 BUFX4_104
*1443 NAND2X1_83
*1444 INVX2_40
*1445 NAND3X1_106
*1446 OAI21X1_137
*1447 OAI21X1_142
*1448 NOR2X1_1
*1449 OAI21X1_657
*1450 OAI21X1_664
*1451 OAI21X1_656
*1452 _231_
*1453 INVX8_7
*1454 BUFX4_141
*1455 BUFX4_140
*1456 BUFX4_142
*1457 BUFX4_144
*1458 BUFX4_145
*1459 BUFX4_146
*1460 BUFX4_139
*1461 BUFX4_147
*1462 BUFX4_143
*1463 _2166__bF_buf6
*1464 BUFX4_172
*1465 AOI21X1_70
*1466 OAI21X1_293
*1467 AOI21X1_97
*1468 OAI21X1_295
*1469 NAND2X1_173
*1470 NAND2X1_171
*1471 NAND2X1_154
*1472 NAND2X1_152
*1473 AOI21X1_72
*1474 _2166__bF_buf5
*1475 BUFX4_173
*1476 NAND2X1_176
*1477 NAND2X1_165
*1478 AOI21X1_64
*1479 NOR2X1_193
*1480 NOR2X1_197
*1481 AOI21X1_82
*1482 NAND2X1_167
*1483 AOI21X1_66
*1484 NAND2X1_183
*1485 _2166__bF_buf4
*1486 BUFX4_174
*1487 AOI21X1_78
*1488 AOI21X1_92
*1489 OAI21X1_306
*1490 AOI21X1_89
*1491 NAND2X1_188
*1492 OAI21X1_305
*1493 OAI21X1_307
*1494 NAND2X1_187
*1495 OAI21X1_304
*1496 _2166__bF_buf3
*1497 BUFX4_175
*1498 AOI21X1_73
*1499 OAI21X1_299
*1500 NOR2X1_194
*1501 NAND2X1_185
*1502 NAND2X1_186
*1503 AOI21X1_80
*1504 NAND2X1_180
*1505 AOI21X1_88
*1506 NOR2X1_182
*1507 _2166__bF_buf2
*1508 BUFX4_176
*1509 AOI21X1_62
*1510 NAND2X1_195
*1511 OAI21X1_312
*1512 AOI21X1_100
*1513 AOI21X1_101
*1514 AOI21X1_96
*1515 OAI21X1_311
*1516 OAI21X1_310
*1517 NAND2X1_194
*1518 _2166__bF_buf1
*1519 BUFX4_177
*1520 AOI21X1_57
*1521 NAND2X1_156
*1522 OAI21X1_300
*1523 AOI21X1_74
*1524 NAND2X1_158
*1525 AOI21X1_59
*1526 OAI21X1_302
*1527 AOI21X1_84
*1528 NAND2X1_177
*1529 _1716__bF_buf6
*1530 BUFX4_213
*1531 NAND2X1_113
*1532 NOR2X1_113
*1533 NOR2X1_95
*1534 NOR2X1_168
*1535 NOR2X1_73
*1536 NOR2X1_69
*1537 NOR2X1_97
*1538 NOR2X1_166
*1539 NOR2X1_115
*1540 _1716__bF_buf5
*1541 BUFX4_214
*1542 NOR2X1_119
*1543 NOR2X1_139
*1544 NOR2X1_80
*1545 NOR2X1_158
*1546 NOR2X1_99
*1547 NAND2X1_116
*1548 NOR2X1_160
*1549 NOR2X1_121
*1550 NOR2X1_82
*1551 _1716__bF_buf4
*1552 BUFX4_215
*1553 NOR2X1_108
*1554 NOR2X1_131
*1555 NOR2X1_142
*1556 NOR2X1_106
*1557 NOR2X1_133
*1558 NOR2X1_144
*1559 NOR2X1_127
*1560 NOR2X1_101
*1561 NOR2X1_103
*1562 _249_
*1563 NOR2X1_3
*1564 NAND2X1_35
*1565 NAND3X1_81
*1566 NAND3X1_79
*1567 NAND3X1_83
*1568 NAND3X1_85
*1569 NAND3X1_77
*1570 NAND3X1_72
*1571 NAND3X1_74
*1572 NAND3X1_70
*1573 _1673_
*1574 OAI21X1_194
*1575 NAND3X1_158
*1576 NAND3X1_137
*1577 NAND3X1_122
*1578 NAND3X1_112
*1579 NAND3X1_165
*1580 NAND3X1_146
*1581 NAND3X1_153
*1582 NAND3X1_131
*1583 INVX4_4
*1584 _2196_
*1585 NOR2X1_182
*1586 INVX8_14
*1587 NAND2X1_218
*1588 NAND2X1_228
*1589 NAND2X1_221
*1590 AND2X2_22
*1591 AOI22X1_58
*1592 AOI22X1_70
*1593 AOI22X1_63
*1594 AOI22X1_76
*1595 _646_
*1596 NOR2X1_194
*1597 INVX8_17
*1598 NAND2X1_230
*1599 AOI22X1_65
*1600 NAND2X1_234
*1601 AOI22X1_59
*1602 AOI22X1_72
*1603 NAND2X1_241
*1604 AOI22X1_73
*1605 NAND2X1_246
*1606 _1163_
*1607 INVX4_9
*1608 NOR2X1_273
*1609 NOR2X1_271
*1610 NOR2X1_272
*1611 OR2X2_20
*1612 NOR2X1_274
*1613 OR2X2_16
*1614 NOR2X1_280
*1615 NOR2X1_282
*1616 NOR2X1_281
*1617 wb_sel_i[1]
*1618 BUFX4_8
*1619 BUFX4_7
*1620 BUFX4_11
*1621 BUFX4_10
*1622 BUFX4_9
*1623 BUFX4_12
*1624 BUFX4_6
*1625 BUFX4_5
*1626 wb_sel_i[1_bF_buf1]
*1627 BUFX4_11
*1628 NAND2X1_20
*1629 NAND2X1_231
*1630 NAND2X1_24
*1631 MUX2X1_10
*1632 NAND2X1_236
*1633 OAI21X1_621
*1634 OAI21X1_504
*1635 OAI21X1_94
*1636 wb_sel_i[1_bF_buf0]
*1637 BUFX4_12
*1638 OAI21X1_96
*1639 OAI21X1_39
*1640 OAI21X1_47
*1641 OAI21X1_705
*1642 OAI21X1_623
*1643 OAI21X1_383
*1644 OAI21X1_508
*1645 OAI21X1_398
*1646 _7_
*1647 NOR2X1_1
*1648 BUFX4_20
*1649 BUFX4_18
*1650 BUFX4_13
*1651 BUFX4_16
*1652 BUFX4_19
*1653 BUFX4_15
*1654 BUFX4_14
*1655 BUFX4_17
*1656 _7__bF_buf6
*1657 BUFX4_14
*1658 NAND3X1_10
*1659 NAND3X1_5
*1660 NAND3X1_3
*1661 NAND3X1_7
*1662 NAND3X1_6
*1663 NAND3X1_8
*1664 NAND3X1_9
*1665 NAND3X1_4
*1666 _7__bF_buf5
*1667 BUFX4_15
*1668 NAND3X1_42
*1669 NAND3X1_29
*1670 NAND3X1_33
*1671 NAND3X1_43
*1672 NAND3X1_49
*1673 NAND3X1_41
*1674 NAND3X1_61
*1675 NAND3X1_63
*1676 _7__bF_buf4
*1677 BUFX4_16
*1678 NAND3X1_48
*1679 NAND3X1_45
*1680 NAND3X1_44
*1681 NAND3X1_46
*1682 NAND3X1_12
*1683 NAND3X1_28
*1684 NAND3X1_27
*1685 NAND3X1_32
*1686 _7__bF_buf3
*1687 BUFX4_17
*1688 NAND3X1_26
*1689 NAND3X1_21
*1690 AND2X2_1
*1691 NAND3X1_58
*1692 NAND3X1_52
*1693 NAND3X1_57
*1694 NAND3X1_54
*1695 NAND3X1_55
*1696 _7__bF_buf2
*1697 BUFX4_18
*1698 NAND3X1_38
*1699 NAND3X1_36
*1700 NAND3X1_25
*1701 NAND3X1_19
*1702 NAND3X1_39
*1703 NAND3X1_40
*1704 NAND3X1_65
*1705 NAND3X1_37
*1706 _7__bF_buf1
*1707 BUFX4_19
*1708 NAND3X1_47
*1709 NAND3X1_13
*1710 NAND3X1_17
*1711 NAND3X1_16
*1712 NAND3X1_11
*1713 NAND3X1_18
*1714 NAND3X1_15
*1715 NAND3X1_14
*1716 _7__bF_buf0
*1717 BUFX4_20
*1718 NAND3X1_22
*1719 AND2X2_3
*1720 NAND3X1_51
*1721 NAND3X1_24
*1722 NAND3X1_23
*1723 NAND3X1_20
*1724 NAND3X1_56
*1725 NAND3X1_53
*1726 _955__bF_buf4
*1727 BUFX4_30
*1728 NOR2X1_302
*1729 AOI21X1_213
*1730 OAI21X1_497
*1731 OAI21X1_513
*1732 OAI21X1_518
*1733 OAI21X1_502
*1734 AOI21X1_220
*1735 AOI21X1_221
*1736 _955__bF_buf3
*1737 BUFX4_31
*1738 AOI21X1_205
*1739 AOI21X1_208
*1740 AOI21X1_261
*1741 AOI21X1_204
*1742 AOI21X1_228
*1743 AOI21X1_207
*1744 AOI21X1_262
*1745 OAI21X1_475
*1746 _955__bF_buf2
*1747 BUFX4_32
*1748 INVX8_20
*1749 OAI21X1_523
*1750 NOR2X1_307
*1751 AOI21X1_238
*1752 AOI21X1_202
*1753 AOI21X1_201
*1754 NOR2X1_309
*1755 OAI21X1_548
*1756 _955__bF_buf1
*1757 BUFX4_33
*1758 OAI21X1_528
*1759 NOR2X1_339
*1760 AOI21X1_237
*1761 OAI21X1_533
*1762 AOI21X1_230
*1763 AOI21X1_231
*1764 AOI21X1_235
*1765 AOI21X1_234
*1766 _955__bF_buf0
*1767 BUFX4_34
*1768 AOI21X1_224
*1769 AOI21X1_223
*1770 AOI21X1_259
*1771 AOI21X1_258
*1772 AOI21X1_216
*1773 AOI21X1_217
*1774 AOI21X1_227
*1775 AOI21X1_214
*1776 _1709__bF_buf5
*1777 BUFX4_41
*1778 NOR2X1_77
*1779 NOR2X1_75
*1780 AOI21X1_30
*1781 NOR2X1_102
*1782 NOR2X1_104
*1783 NOR2X1_163
*1784 NOR2X1_165
*1785 OAI21X1_232
*1786 _1709__bF_buf4
*1787 BUFX4_42
*1788 NAND2X1_111
*1789 NOR2X1_111
*1790 NOR2X1_109
*1791 NOR2X1_147
*1792 NOR2X1_173
*1793 NOR2X1_169
*1794 NOR2X1_149
*1795 NOR2X1_171
*1796 _1709__bF_buf3
*1797 BUFX4_43
*1798 NOR2X1_120
*1799 NOR2X1_140
*1800 NOR2X1_79
*1801 NOR2X1_81
*1802 NOR2X1_122
*1803 NOR2X1_161
*1804 NOR2X1_159
*1805 NOR2X1_100
*1806 _1709__bF_buf2
*1807 BUFX4_44