* XSpice netlist created from SPICE and liberty sources by spi2xspice.py
*SPICE netlist created from BLIF module spi_top by blif2BSpice
.subckt spi_top a_vdd a_gnd a_wb_clk_i a_wb_rst_i a_wb_adr_i_0_ a_wb_adr_i_1_ a_wb_adr_i_2_ a_wb_adr_i_3_ a_wb_adr_i_4_ a_wb_dat_i_0_ a_wb_dat_i_1_ a_wb_dat_i_2_ a_wb_dat_i_3_ a_wb_dat_i_4_ a_wb_dat_i_5_ a_wb_dat_i_6_ a_wb_dat_i_7_ a_wb_dat_i_8_ a_wb_dat_i_9_ a_wb_dat_i_10_ a_wb_dat_i_11_ a_wb_dat_i_12_ a_wb_dat_i_13_ a_wb_dat_i_14_ a_wb_dat_i_15_ a_wb_dat_i_16_ a_wb_dat_i_17_ a_wb_dat_i_18_ a_wb_dat_i_19_ a_wb_dat_i_20_ a_wb_dat_i_21_ a_wb_dat_i_22_ a_wb_dat_i_23_ a_wb_dat_i_24_ a_wb_dat_i_25_ a_wb_dat_i_26_ a_wb_dat_i_27_ a_wb_dat_i_28_ a_wb_dat_i_29_ a_wb_dat_i_30_ a_wb_dat_i_31_ a_wb_sel_i_0_ a_wb_sel_i_1_ a_wb_sel_i_2_ a_wb_sel_i_3_ a_wb_we_i a_wb_stb_i a_wb_cyc_i a_miso_pad_i a_wb_dat_o_0_ a_wb_dat_o_1_ a_wb_dat_o_2_ a_wb_dat_o_3_ a_wb_dat_o_4_ a_wb_dat_o_5_ a_wb_dat_o_6_ a_wb_dat_o_7_ a_wb_dat_o_8_ a_wb_dat_o_9_ a_wb_dat_o_10_ a_wb_dat_o_11_ a_wb_dat_o_12_ a_wb_dat_o_13_ a_wb_dat_o_14_ a_wb_dat_o_15_ a_wb_dat_o_16_ a_wb_dat_o_17_ a_wb_dat_o_18_ a_wb_dat_o_19_ a_wb_dat_o_20_ a_wb_dat_o_21_ a_wb_dat_o_22_ a_wb_dat_o_23_ a_wb_dat_o_24_ a_wb_dat_o_25_ a_wb_dat_o_26_ a_wb_dat_o_27_ a_wb_dat_o_28_ a_wb_dat_o_29_ a_wb_dat_o_30_ a_wb_dat_o_31_ a_wb_ack_o a_wb_err_o a_wb_int_o a_ss_pad_o_0_ a_ss_pad_o_1_ a_ss_pad_o_2_ a_ss_pad_o_3_ a_ss_pad_o_4_ a_ss_pad_o_5_ a_ss_pad_o_6_ a_ss_pad_o_7_ a_ss_pad_o_8_ a_ss_pad_o_9_ a_ss_pad_o_10_ a_ss_pad_o_11_ a_ss_pad_o_12_ a_ss_pad_o_13_ a_ss_pad_o_14_ a_ss_pad_o_15_ a_ss_pad_o_16_ a_ss_pad_o_17_ a_ss_pad_o_18_ a_ss_pad_o_19_ a_ss_pad_o_20_ a_ss_pad_o_21_ a_ss_pad_o_22_ a_ss_pad_o_23_ a_ss_pad_o_24_ a_ss_pad_o_25_ a_ss_pad_o_26_ a_ss_pad_o_27_ a_ss_pad_o_28_ a_ss_pad_o_29_ a_ss_pad_o_30_ a_ss_pad_o_31_ a_sclk_pad_o a_mosi_pad_o
ACLKBUF1_1 [wb_clk_i_bF$buf10] wb_clk_i_bF$buf10_bF$buf3 d_lut_CLKBUF1
ACLKBUF1_2 [wb_clk_i_bF$buf10] wb_clk_i_bF$buf10_bF$buf2 d_lut_CLKBUF1
ACLKBUF1_3 [wb_clk_i_bF$buf10] wb_clk_i_bF$buf10_bF$buf1 d_lut_CLKBUF1
ACLKBUF1_4 [wb_clk_i_bF$buf10] wb_clk_i_bF$buf10_bF$buf0 d_lut_CLKBUF1
ACLKBUF1_5 [wb_clk_i_bF$buf11] wb_clk_i_bF$buf11_bF$buf3 d_lut_CLKBUF1
ACLKBUF1_6 [wb_clk_i_bF$buf11] wb_clk_i_bF$buf11_bF$buf2 d_lut_CLKBUF1
ACLKBUF1_7 [wb_clk_i_bF$buf11] wb_clk_i_bF$buf11_bF$buf1 d_lut_CLKBUF1
ACLKBUF1_8 [wb_clk_i_bF$buf11] wb_clk_i_bF$buf11_bF$buf0 d_lut_CLKBUF1
ACLKBUF1_9 [wb_clk_i_bF$buf12] wb_clk_i_bF$buf12_bF$buf3 d_lut_CLKBUF1
ACLKBUF1_10 [wb_clk_i_bF$buf12] wb_clk_i_bF$buf12_bF$buf2 d_lut_CLKBUF1
ACLKBUF1_11 [wb_clk_i_bF$buf12] wb_clk_i_bF$buf12_bF$buf1 d_lut_CLKBUF1
ACLKBUF1_12 [wb_clk_i_bF$buf12] wb_clk_i_bF$buf12_bF$buf0 d_lut_CLKBUF1
ACLKBUF1_13 [wb_clk_i_bF$buf13] wb_clk_i_bF$buf13_bF$buf3 d_lut_CLKBUF1
ACLKBUF1_14 [wb_clk_i_bF$buf13] wb_clk_i_bF$buf13_bF$buf2 d_lut_CLKBUF1
ACLKBUF1_15 [wb_clk_i_bF$buf13] wb_clk_i_bF$buf13_bF$buf1 d_lut_CLKBUF1
ACLKBUF1_16 [wb_clk_i_bF$buf13] wb_clk_i_bF$buf13_bF$buf0 d_lut_CLKBUF1
ACLKBUF1_17 [wb_clk_i_bF$buf14] wb_clk_i_bF$buf14_bF$buf3 d_lut_CLKBUF1
ACLKBUF1_18 [wb_clk_i_bF$buf14] wb_clk_i_bF$buf14_bF$buf2 d_lut_CLKBUF1
ACLKBUF1_19 [wb_clk_i_bF$buf14] wb_clk_i_bF$buf14_bF$buf1 d_lut_CLKBUF1
ACLKBUF1_20 [wb_clk_i_bF$buf14] wb_clk_i_bF$buf14_bF$buf0 d_lut_CLKBUF1
ACLKBUF1_21 [wb_clk_i_bF$buf2] wb_clk_i_bF$buf2_bF$buf3 d_lut_CLKBUF1
ACLKBUF1_22 [wb_clk_i_bF$buf2] wb_clk_i_bF$buf2_bF$buf2 d_lut_CLKBUF1
ACLKBUF1_23 [wb_clk_i_bF$buf2] wb_clk_i_bF$buf2_bF$buf1 d_lut_CLKBUF1
ACLKBUF1_24 [wb_clk_i_bF$buf2] wb_clk_i_bF$buf2_bF$buf0 d_lut_CLKBUF1
ACLKBUF1_25 [wb_clk_i_bF$buf3] wb_clk_i_bF$buf3_bF$buf3 d_lut_CLKBUF1
ACLKBUF1_26 [wb_clk_i_bF$buf3] wb_clk_i_bF$buf3_bF$buf2 d_lut_CLKBUF1
ACLKBUF1_27 [wb_clk_i_bF$buf3] wb_clk_i_bF$buf3_bF$buf1 d_lut_CLKBUF1
ACLKBUF1_28 [wb_clk_i_bF$buf3] wb_clk_i_bF$buf3_bF$buf0 d_lut_CLKBUF1
ACLKBUF1_29 [wb_clk_i_bF$buf4] wb_clk_i_bF$buf4_bF$buf3 d_lut_CLKBUF1
ACLKBUF1_30 [wb_clk_i_bF$buf4] wb_clk_i_bF$buf4_bF$buf2 d_lut_CLKBUF1
ACLKBUF1_31 [wb_clk_i_bF$buf4] wb_clk_i_bF$buf4_bF$buf1 d_lut_CLKBUF1
ACLKBUF1_32 [wb_clk_i_bF$buf4] wb_clk_i_bF$buf4_bF$buf0 d_lut_CLKBUF1
ACLKBUF1_33 [wb_clk_i_bF$buf5] wb_clk_i_bF$buf5_bF$buf3 d_lut_CLKBUF1
ACLKBUF1_34 [wb_clk_i_bF$buf5] wb_clk_i_bF$buf5_bF$buf2 d_lut_CLKBUF1
ACLKBUF1_35 [wb_clk_i_bF$buf5] wb_clk_i_bF$buf5_bF$buf1 d_lut_CLKBUF1
ACLKBUF1_36 [wb_clk_i_bF$buf5] wb_clk_i_bF$buf5_bF$buf0 d_lut_CLKBUF1
ACLKBUF1_37 [wb_clk_i_bF$buf6] wb_clk_i_bF$buf6_bF$buf3 d_lut_CLKBUF1
ACLKBUF1_38 [wb_clk_i_bF$buf6] wb_clk_i_bF$buf6_bF$buf2 d_lut_CLKBUF1
ACLKBUF1_39 [wb_clk_i_bF$buf6] wb_clk_i_bF$buf6_bF$buf1 d_lut_CLKBUF1
ACLKBUF1_40 [wb_clk_i_bF$buf6] wb_clk_i_bF$buf6_bF$buf0 d_lut_CLKBUF1
ACLKBUF1_41 [wb_clk_i_bF$buf7] wb_clk_i_bF$buf7_bF$buf3 d_lut_CLKBUF1
ACLKBUF1_42 [wb_clk_i_bF$buf7] wb_clk_i_bF$buf7_bF$buf2 d_lut_CLKBUF1
ACLKBUF1_43 [wb_clk_i_bF$buf7] wb_clk_i_bF$buf7_bF$buf1 d_lut_CLKBUF1
ACLKBUF1_44 [wb_clk_i_bF$buf7] wb_clk_i_bF$buf7_bF$buf0 d_lut_CLKBUF1
ACLKBUF1_45 [wb_clk_i_bF$buf8] wb_clk_i_bF$buf8_bF$buf3 d_lut_CLKBUF1
ACLKBUF1_46 [wb_clk_i_bF$buf8] wb_clk_i_bF$buf8_bF$buf2 d_lut_CLKBUF1
ACLKBUF1_47 [wb_clk_i_bF$buf8] wb_clk_i_bF$buf8_bF$buf1 d_lut_CLKBUF1
ACLKBUF1_48 [wb_clk_i_bF$buf8] wb_clk_i_bF$buf8_bF$buf0 d_lut_CLKBUF1
ACLKBUF1_49 [wb_clk_i_bF$buf9] wb_clk_i_bF$buf9_bF$buf3 d_lut_CLKBUF1
ACLKBUF1_50 [wb_clk_i_bF$buf9] wb_clk_i_bF$buf9_bF$buf2 d_lut_CLKBUF1
ACLKBUF1_51 [wb_clk_i_bF$buf9] wb_clk_i_bF$buf9_bF$buf1 d_lut_CLKBUF1
ACLKBUF1_52 [wb_clk_i_bF$buf9] wb_clk_i_bF$buf9_bF$buf0 d_lut_CLKBUF1
ABUFX4_1 [_450_] _450__bF$buf3 d_lut_BUFX4
ABUFX4_2 [_450_] _450__bF$buf2 d_lut_BUFX4
ABUFX4_3 [_450_] _450__bF$buf1 d_lut_BUFX4
ABUFX4_4 [_450_] _450__bF$buf0 d_lut_BUFX4
ABUFX4_5 [wb_sel_i_1_] wb_sel_i_1_bF$buf7_ d_lut_BUFX4
ABUFX4_6 [wb_sel_i_1_] wb_sel_i_1_bF$buf6_ d_lut_BUFX4
ABUFX4_7 [wb_sel_i_1_] wb_sel_i_1_bF$buf5_ d_lut_BUFX4
ABUFX4_8 [wb_sel_i_1_] wb_sel_i_1_bF$buf4_ d_lut_BUFX4
ABUFX4_9 [wb_sel_i_1_] wb_sel_i_1_bF$buf3_ d_lut_BUFX4
ABUFX4_10 [wb_sel_i_1_] wb_sel_i_1_bF$buf2_ d_lut_BUFX4
ABUFX4_11 [wb_sel_i_1_] wb_sel_i_1_bF$buf1_ d_lut_BUFX4
ABUFX4_12 [wb_sel_i_1_] wb_sel_i_1_bF$buf0_ d_lut_BUFX4
ABUFX4_13 [_7_] _7__bF$buf7 d_lut_BUFX4
ABUFX4_14 [_7_] _7__bF$buf6 d_lut_BUFX4
ABUFX4_15 [_7_] _7__bF$buf5 d_lut_BUFX4
ABUFX4_16 [_7_] _7__bF$buf4 d_lut_BUFX4
ABUFX4_17 [_7_] _7__bF$buf3 d_lut_BUFX4
ABUFX4_18 [_7_] _7__bF$buf2 d_lut_BUFX4
ABUFX4_19 [_7_] _7__bF$buf1 d_lut_BUFX4
ABUFX4_20 [_7_] _7__bF$buf0 d_lut_BUFX4
ABUFX4_21 [_10_] _10__bF$buf6 d_lut_BUFX4
ABUFX4_22 [_10_] _10__bF$buf5 d_lut_BUFX4
ABUFX4_23 [_10_] _10__bF$buf4 d_lut_BUFX4
ABUFX4_24 [_10_] _10__bF$buf3 d_lut_BUFX4
ABUFX4_25 [_10_] _10__bF$buf2 d_lut_BUFX4
ABUFX4_26 [_10_] _10__bF$buf1 d_lut_BUFX4
ABUFX4_27 [_10_] _10__bF$buf0 d_lut_BUFX4
ABUFX4_28 [_955_] _955__bF$buf6 d_lut_BUFX4
ABUFX4_29 [_955_] _955__bF$buf5 d_lut_BUFX4
ABUFX4_30 [_955_] _955__bF$buf4 d_lut_BUFX4
ABUFX4_31 [_955_] _955__bF$buf3 d_lut_BUFX4
ABUFX4_32 [_955_] _955__bF$buf2 d_lut_BUFX4
ABUFX4_33 [_955_] _955__bF$buf1 d_lut_BUFX4
ABUFX4_34 [_955_] _955__bF$buf0 d_lut_BUFX4
ABUFX4_35 [_2097_] _2097__bF$buf4 d_lut_BUFX4
ABUFX4_36 [_2097_] _2097__bF$buf3 d_lut_BUFX4
ABUFX4_37 [_2097_] _2097__bF$buf2 d_lut_BUFX4
ABUFX4_38 [_2097_] _2097__bF$buf1 d_lut_BUFX4
ABUFX4_39 [_2097_] _2097__bF$buf0 d_lut_BUFX4
ABUFX4_40 [_1709_] _1709__bF$buf6 d_lut_BUFX4
ABUFX4_41 [_1709_] _1709__bF$buf5 d_lut_BUFX4
ABUFX4_42 [_1709_] _1709__bF$buf4 d_lut_BUFX4
ABUFX4_43 [_1709_] _1709__bF$buf3 d_lut_BUFX4
ABUFX4_44 [_1709_] _1709__bF$buf2 d_lut_BUFX4
ABUFX4_45 [_1709_] _1709__bF$buf1 d_lut_BUFX4
ABUFX4_46 [_1709_] _1709__bF$buf0 d_lut_BUFX4
ABUFX4_47 [_711_] _711__bF$buf3 d_lut_BUFX4
ABUFX4_48 [_711_] _711__bF$buf2 d_lut_BUFX4
ABUFX4_49 [_711_] _711__bF$buf1 d_lut_BUFX4
ABUFX4_50 [_711_] _711__bF$buf0 d_lut_BUFX4
ABUFX4_51 [_708_] _708__bF$buf5 d_lut_BUFX4
ABUFX4_52 [_708_] _708__bF$buf4 d_lut_BUFX4
ABUFX4_53 [_708_] _708__bF$buf3 d_lut_BUFX4
ABUFX4_54 [_708_] _708__bF$buf2 d_lut_BUFX4
ABUFX4_55 [_708_] _708__bF$buf1 d_lut_BUFX4
ABUFX4_56 [_708_] _708__bF$buf0 d_lut_BUFX4
ABUFX4_57 [_705_] _705__bF$buf10 d_lut_BUFX4
ABUFX4_58 [_705_] _705__bF$buf9 d_lut_BUFX4
ABUFX4_59 [_705_] _705__bF$buf8 d_lut_BUFX4
ABUFX4_60 [_705_] _705__bF$buf7 d_lut_BUFX4
ABUFX4_61 [_705_] _705__bF$buf6 d_lut_BUFX4
ABUFX4_62 [_705_] _705__bF$buf5 d_lut_BUFX4
ABUFX4_63 [_705_] _705__bF$buf4 d_lut_BUFX4
ABUFX4_64 [_705_] _705__bF$buf3 d_lut_BUFX4
ABUFX4_65 [_705_] _705__bF$buf2 d_lut_BUFX4
ABUFX4_66 [_705_] _705__bF$buf1 d_lut_BUFX4
ABUFX4_67 [_705_] _705__bF$buf0 d_lut_BUFX4
ABUFX4_68 [wb_sel_i_3_] wb_sel_i_3_bF$buf6_ d_lut_BUFX4
ABUFX4_69 [wb_sel_i_3_] wb_sel_i_3_bF$buf5_ d_lut_BUFX4
ABUFX4_70 [wb_sel_i_3_] wb_sel_i_3_bF$buf4_ d_lut_BUFX4
ABUFX4_71 [wb_sel_i_3_] wb_sel_i_3_bF$buf3_ d_lut_BUFX4
ABUFX4_72 [wb_sel_i_3_] wb_sel_i_3_bF$buf2_ d_lut_BUFX4
ABUFX4_73 [wb_sel_i_3_] wb_sel_i_3_bF$buf1_ d_lut_BUFX4
ABUFX4_74 [wb_sel_i_3_] wb_sel_i_3_bF$buf0_ d_lut_BUFX4
ABUFX4_75 [_9_] _9__bF$buf3 d_lut_BUFX4
ABUFX4_76 [_9_] _9__bF$buf2 d_lut_BUFX4
ABUFX4_77 [_9_] _9__bF$buf1 d_lut_BUFX4
ABUFX4_78 [_9_] _9__bF$buf0 d_lut_BUFX4
ABUFX4_79 [wb_sel_i_0_] wb_sel_i_0_bF$buf7_ d_lut_BUFX4
ABUFX4_80 [wb_sel_i_0_] wb_sel_i_0_bF$buf6_ d_lut_BUFX4
ABUFX4_81 [wb_sel_i_0_] wb_sel_i_0_bF$buf5_ d_lut_BUFX4
ABUFX4_82 [wb_sel_i_0_] wb_sel_i_0_bF$buf4_ d_lut_BUFX4
ABUFX4_83 [wb_sel_i_0_] wb_sel_i_0_bF$buf3_ d_lut_BUFX4
ABUFX4_84 [wb_sel_i_0_] wb_sel_i_0_bF$buf2_ d_lut_BUFX4
ABUFX4_85 [wb_sel_i_0_] wb_sel_i_0_bF$buf1_ d_lut_BUFX4
ABUFX4_86 [wb_sel_i_0_] wb_sel_i_0_bF$buf0_ d_lut_BUFX4
ABUFX4_87 [_481_] _481__bF$buf3 d_lut_BUFX4
ABUFX4_88 [_481_] _481__bF$buf2 d_lut_BUFX4
ABUFX4_89 [_481_] _481__bF$buf1 d_lut_BUFX4
ABUFX4_90 [_481_] _481__bF$buf0 d_lut_BUFX4
ACLKBUF1_53 [wb_clk_i] wb_clk_i_bF$buf14 d_lut_CLKBUF1
ACLKBUF1_54 [wb_clk_i] wb_clk_i_bF$buf13 d_lut_CLKBUF1
ACLKBUF1_55 [wb_clk_i] wb_clk_i_bF$buf12 d_lut_CLKBUF1
ACLKBUF1_56 [wb_clk_i] wb_clk_i_bF$buf11 d_lut_CLKBUF1
ACLKBUF1_57 [wb_clk_i] wb_clk_i_bF$buf10 d_lut_CLKBUF1
ACLKBUF1_58 [wb_clk_i] wb_clk_i_bF$buf9 d_lut_CLKBUF1
ACLKBUF1_59 [wb_clk_i] wb_clk_i_bF$buf8 d_lut_CLKBUF1
ACLKBUF1_60 [wb_clk_i] wb_clk_i_bF$buf7 d_lut_CLKBUF1
ACLKBUF1_61 [wb_clk_i] wb_clk_i_bF$buf6 d_lut_CLKBUF1
ACLKBUF1_62 [wb_clk_i] wb_clk_i_bF$buf5 d_lut_CLKBUF1
ACLKBUF1_63 [wb_clk_i] wb_clk_i_bF$buf4 d_lut_CLKBUF1
ACLKBUF1_64 [wb_clk_i] wb_clk_i_bF$buf3 d_lut_CLKBUF1
ACLKBUF1_65 [wb_clk_i] wb_clk_i_bF$buf2 d_lut_CLKBUF1
ACLKBUF1_66 [wb_clk_i] wb_clk_i_bF$buf1 d_lut_CLKBUF1
ACLKBUF1_67 [wb_clk_i] wb_clk_i_bF$buf0 d_lut_CLKBUF1
ABUFX4_91 [_155_] _155__bF$buf4 d_lut_BUFX4
ABUFX4_92 [_155_] _155__bF$buf3 d_lut_BUFX4
ABUFX4_93 [_155_] _155__bF$buf2 d_lut_BUFX4
ABUFX4_94 [_155_] _155__bF$buf1 d_lut_BUFX4
ABUFX4_95 [_155_] _155__bF$buf0 d_lut_BUFX4
ABUFX4_96 [clgen.enable] clgen.enable_bF$buf8 d_lut_BUFX4
ABUFX4_97 [clgen.enable] clgen.enable_bF$buf7 d_lut_BUFX4
ABUFX4_98 [clgen.enable] clgen.enable_bF$buf6 d_lut_BUFX4
ABUFX4_99 [clgen.enable] clgen.enable_bF$buf5 d_lut_BUFX4
ABUFX4_100 [clgen.enable] clgen.enable_bF$buf4 d_lut_BUFX4
ABUFX4_101 [clgen.enable] clgen.enable_bF$buf3 d_lut_BUFX4
ABUFX4_102 [clgen.enable] clgen.enable_bF$buf2 d_lut_BUFX4
ABUFX4_103 [clgen.enable] clgen.enable_bF$buf1 d_lut_BUFX4
ABUFX4_104 [clgen.enable] clgen.enable_bF$buf0 d_lut_BUFX4
ABUFX4_105 [_190_] _190__bF$buf3 d_lut_BUFX4
ABUFX4_106 [_190_] _190__bF$buf2 d_lut_BUFX4
ABUFX4_107 [_190_] _190__bF$buf1 d_lut_BUFX4
ABUFX4_108 [_190_] _190__bF$buf0 d_lut_BUFX4
ABUFX4_109 [rx_negedge] rx_negedge_bF$buf3 d_lut_BUFX4
ABUFX4_110 [rx_negedge] rx_negedge_bF$buf2 d_lut_BUFX4
ABUFX4_111 [rx_negedge] rx_negedge_bF$buf1 d_lut_BUFX4
ABUFX4_112 [rx_negedge] rx_negedge_bF$buf0 d_lut_BUFX4
ABUFX4_113 [_1138_] _1138__bF$buf5 d_lut_BUFX4
ABUFX4_114 [_1138_] _1138__bF$buf4 d_lut_BUFX4
ABUFX4_115 [_1138_] _1138__bF$buf3 d_lut_BUFX4
ABUFX4_116 [_1138_] _1138__bF$buf2 d_lut_BUFX4
ABUFX4_117 [_1138_] _1138__bF$buf1 d_lut_BUFX4
ABUFX4_118 [_1138_] _1138__bF$buf0 d_lut_BUFX4
ABUFX4_119 [_1135_] _1135__bF$buf4 d_lut_BUFX4
ABUFX4_120 [_1135_] _1135__bF$buf3 d_lut_BUFX4
ABUFX4_121 [_1135_] _1135__bF$buf2 d_lut_BUFX4
ABUFX4_122 [_1135_] _1135__bF$buf1 d_lut_BUFX4
ABUFX4_123 [_1135_] _1135__bF$buf0 d_lut_BUFX4
ABUFX4_124 [_369_] _369__bF$buf3 d_lut_BUFX4
ABUFX4_125 [_369_] _369__bF$buf2 d_lut_BUFX4
ABUFX4_126 [_369_] _369__bF$buf1 d_lut_BUFX4
ABUFX4_127 [_369_] _369__bF$buf0 d_lut_BUFX4
ABUFX4_128 [_1073_] _1073__bF$buf10 d_lut_BUFX4
ABUFX4_129 [_1073_] _1073__bF$buf9 d_lut_BUFX4
ABUFX4_130 [_1073_] _1073__bF$buf8 d_lut_BUFX4
ABUFX4_131 [_1073_] _1073__bF$buf7 d_lut_BUFX4
ABUFX4_132 [_1073_] _1073__bF$buf6 d_lut_BUFX4
ABUFX4_133 [_1073_] _1073__bF$buf5 d_lut_BUFX4
ABUFX4_134 [_1073_] _1073__bF$buf4 d_lut_BUFX4
ABUFX4_135 [_1073_] _1073__bF$buf3 d_lut_BUFX4
ABUFX4_136 [_1073_] _1073__bF$buf2 d_lut_BUFX4
ABUFX4_137 [_1073_] _1073__bF$buf1 d_lut_BUFX4
ABUFX4_138 [_1073_] _1073__bF$buf0 d_lut_BUFX4
ABUFX4_139 [_231_] _231__bF$buf8 d_lut_BUFX4
ABUFX4_140 [_231_] _231__bF$buf7 d_lut_BUFX4
ABUFX4_141 [_231_] _231__bF$buf6 d_lut_BUFX4
ABUFX4_142 [_231_] _231__bF$buf5 d_lut_BUFX4
ABUFX4_143 [_231_] _231__bF$buf4 d_lut_BUFX4
ABUFX4_144 [_231_] _231__bF$buf3 d_lut_BUFX4
ABUFX4_145 [_231_] _231__bF$buf2 d_lut_BUFX4
ABUFX4_146 [_231_] _231__bF$buf1 d_lut_BUFX4
ABUFX4_147 [_231_] _231__bF$buf0 d_lut_BUFX4
ABUFX4_148 [_707_] _707__bF$buf4 d_lut_BUFX4
ABUFX4_149 [_707_] _707__bF$buf3 d_lut_BUFX4
ABUFX4_150 [_707_] _707__bF$buf2 d_lut_BUFX4
ABUFX4_151 [_707_] _707__bF$buf1 d_lut_BUFX4
ABUFX4_152 [_707_] _707__bF$buf0 d_lut_BUFX4
ABUFX4_153 [_2237_] _2237__bF$buf5 d_lut_BUFX4
ABUFX4_154 [_2237_] _2237__bF$buf4 d_lut_BUFX4
ABUFX4_155 [_2237_] _2237__bF$buf3 d_lut_BUFX4
ABUFX4_156 [_2237_] _2237__bF$buf2 d_lut_BUFX4
ABUFX4_157 [_2237_] _2237__bF$buf1 d_lut_BUFX4
ABUFX4_158 [_2237_] _2237__bF$buf0 d_lut_BUFX4
ABUFX4_159 [wb_sel_i_2_] wb_sel_i_2_bF$buf6_ d_lut_BUFX4
ABUFX4_160 [wb_sel_i_2_] wb_sel_i_2_bF$buf5_ d_lut_BUFX4
ABUFX4_161 [wb_sel_i_2_] wb_sel_i_2_bF$buf4_ d_lut_BUFX4
ABUFX4_162 [wb_sel_i_2_] wb_sel_i_2_bF$buf3_ d_lut_BUFX4
ABUFX4_163 [wb_sel_i_2_] wb_sel_i_2_bF$buf2_ d_lut_BUFX4
ABUFX4_164 [wb_sel_i_2_] wb_sel_i_2_bF$buf1_ d_lut_BUFX4
ABUFX4_165 [wb_sel_i_2_] wb_sel_i_2_bF$buf0_ d_lut_BUFX4
ABUFX4_166 [_959_] _959__bF$buf5 d_lut_BUFX4
ABUFX4_167 [_959_] _959__bF$buf4 d_lut_BUFX4
ABUFX4_168 [_959_] _959__bF$buf3 d_lut_BUFX4
ABUFX4_169 [_959_] _959__bF$buf2 d_lut_BUFX4
ABUFX4_170 [_959_] _959__bF$buf1 d_lut_BUFX4
ABUFX4_171 [_959_] _959__bF$buf0 d_lut_BUFX4
ABUFX4_172 [_2166_] _2166__bF$buf6 d_lut_BUFX4
ABUFX4_173 [_2166_] _2166__bF$buf5 d_lut_BUFX4
ABUFX4_174 [_2166_] _2166__bF$buf4 d_lut_BUFX4
ABUFX4_175 [_2166_] _2166__bF$buf3 d_lut_BUFX4
ABUFX4_176 [_2166_] _2166__bF$buf2 d_lut_BUFX4
ABUFX4_177 [_2166_] _2166__bF$buf1 d_lut_BUFX4
ABUFX4_178 [_2166_] _2166__bF$buf0 d_lut_BUFX4
ABUFX4_179 [_11_] _11__bF$buf4 d_lut_BUFX4
ABUFX4_180 [_11_] _11__bF$buf3 d_lut_BUFX4
ABUFX4_181 [_11_] _11__bF$buf2 d_lut_BUFX4
ABUFX4_182 [_11_] _11__bF$buf1 d_lut_BUFX4
ABUFX4_183 [_11_] _11__bF$buf0 d_lut_BUFX4
ABUFX4_184 [_1722_] _1722__bF$buf4 d_lut_BUFX4
ABUFX4_185 [_1722_] _1722__bF$buf3 d_lut_BUFX4
ABUFX4_186 [_1722_] _1722__bF$buf2 d_lut_BUFX4
ABUFX4_187 [_1722_] _1722__bF$buf1 d_lut_BUFX4
ABUFX4_188 [_1722_] _1722__bF$buf0 d_lut_BUFX4
ABUFX4_189 [_251_] _251__bF$buf4 d_lut_BUFX4
ABUFX4_190 [_251_] _251__bF$buf3 d_lut_BUFX4
ABUFX4_191 [_251_] _251__bF$buf2 d_lut_BUFX4
ABUFX4_192 [_251_] _251__bF$buf1 d_lut_BUFX4
ABUFX4_193 [_251_] _251__bF$buf0 d_lut_BUFX4
ABUFX4_194 [_1698_] _1698__bF$buf4 d_lut_BUFX4
ABUFX4_195 [_1698_] _1698__bF$buf3 d_lut_BUFX4
ABUFX4_196 [_1698_] _1698__bF$buf2 d_lut_BUFX4
ABUFX4_197 [_1698_] _1698__bF$buf1 d_lut_BUFX4
ABUFX4_198 [_1698_] _1698__bF$buf0 d_lut_BUFX4
ABUFX4_199 [_189_] _189__bF$buf3 d_lut_BUFX4
ABUFX4_200 [_189_] _189__bF$buf2 d_lut_BUFX4
ABUFX4_201 [_189_] _189__bF$buf1 d_lut_BUFX4
ABUFX4_202 [_189_] _189__bF$buf0 d_lut_BUFX4
ABUFX4_203 [_953_] _953__bF$buf9 d_lut_BUFX4
ABUFX4_204 [_953_] _953__bF$buf8 d_lut_BUFX4
ABUFX4_205 [_953_] _953__bF$buf7 d_lut_BUFX4
ABUFX4_206 [_953_] _953__bF$buf6 d_lut_BUFX4
ABUFX4_207 [_953_] _953__bF$buf5 d_lut_BUFX4
ABUFX4_208 [_953_] _953__bF$buf4 d_lut_BUFX4
ABUFX4_209 [_953_] _953__bF$buf3 d_lut_BUFX4
ABUFX4_210 [_953_] _953__bF$buf2 d_lut_BUFX4
ABUFX4_211 [_953_] _953__bF$buf1 d_lut_BUFX4
ABUFX4_212 [_953_] _953__bF$buf0 d_lut_BUFX4
ABUFX4_213 [_1716_] _1716__bF$buf6 d_lut_BUFX4
ABUFX4_214 [_1716_] _1716__bF$buf5 d_lut_BUFX4
ABUFX4_215 [_1716_] _1716__bF$buf4 d_lut_BUFX4
ABUFX4_216 [_1716_] _1716__bF$buf3 d_lut_BUFX4
ABUFX4_217 [_1716_] _1716__bF$buf2 d_lut_BUFX4
ABUFX4_218 [_1716_] _1716__bF$buf1 d_lut_BUFX4
ABUFX4_219 [_1716_] _1716__bF$buf0 d_lut_BUFX4
ABUFX4_220 [_2098_] _2098__bF$buf4 d_lut_BUFX4
ABUFX4_221 [_2098_] _2098__bF$buf3 d_lut_BUFX4
ABUFX4_222 [_2098_] _2098__bF$buf2 d_lut_BUFX4
ABUFX4_223 [_2098_] _2098__bF$buf1 d_lut_BUFX4
ABUFX4_224 [_2098_] _2098__bF$buf0 d_lut_BUFX4
ABUFX4_225 [_242_] _242__bF$buf3 d_lut_BUFX4
ABUFX4_226 [_242_] _242__bF$buf2 d_lut_BUFX4
ABUFX4_227 [_242_] _242__bF$buf1 d_lut_BUFX4
ABUFX4_228 [_242_] _242__bF$buf0 d_lut_BUFX4
ABUFX4_229 [_2095_] _2095__bF$buf5 d_lut_BUFX4
ABUFX4_230 [_2095_] _2095__bF$buf4 d_lut_BUFX4
ABUFX4_231 [_2095_] _2095__bF$buf3 d_lut_BUFX4
ABUFX4_232 [_2095_] _2095__bF$buf2 d_lut_BUFX4
ABUFX4_233 [_2095_] _2095__bF$buf1 d_lut_BUFX4
ABUFX4_234 [_2095_] _2095__bF$buf0 d_lut_BUFX4
ABUFX4_235 [_1686_] _1686__bF$buf4 d_lut_BUFX4
ABUFX4_236 [_1686_] _1686__bF$buf3 d_lut_BUFX4
ABUFX4_237 [_1686_] _1686__bF$buf2 d_lut_BUFX4
ABUFX4_238 [_1686_] _1686__bF$buf1 d_lut_BUFX4
ABUFX4_239 [_1686_] _1686__bF$buf0 d_lut_BUFX4
ABUFX4_240 [_712_] _712__bF$buf4 d_lut_BUFX4
ABUFX4_241 [_712_] _712__bF$buf3 d_lut_BUFX4
ABUFX4_242 [_712_] _712__bF$buf2 d_lut_BUFX4
ABUFX4_243 [_712_] _712__bF$buf1 d_lut_BUFX4
ABUFX4_244 [_712_] _712__bF$buf0 d_lut_BUFX4
ABUFX4_245 [lsb] lsb_bF$buf3 d_lut_BUFX4
ABUFX4_246 [lsb] lsb_bF$buf2 d_lut_BUFX4
ABUFX4_247 [lsb] lsb_bF$buf1 d_lut_BUFX4
ABUFX4_248 [lsb] lsb_bF$buf0 d_lut_BUFX4
AINVX1_1 [ss_24_] _5_ d_lut_INVX1
ANAND3X1_1 [wb_stb_i wb_cyc_i wb_we_i] _6_ d_lut_NAND3X1
ANOR2X1_1 [clgen.enable_bF$buf8 _6_] _7_ d_lut_NOR2X1
AINVX4_1 [wb_adr_i_2_] _8_ d_lut_INVX4
ANAND3X1_2 [wb_adr_i_4_ wb_adr_i_3_ _8_] _9_ d_lut_NAND3X1
AINVX8_1 [_9__bF$buf3] _10_ d_lut_INVX8
AAND2X2_1 [_10__bF$buf6 _7__bF$buf7] _11_ d_lut_AND2X2
ANAND2X1_1 [wb_dat_i_24_ wb_sel_i_3_bF$buf6_] _12_ d_lut_NAND2X1
AOAI21X1_1 [_5_ wb_sel_i_3_bF$buf5_ _12_] _13_ d_lut_OAI21X1
ANAND3X1_3 [_7__bF$buf6 _13_ _10__bF$buf5] _14_ d_lut_NAND3X1
AOAI21X1_2 [_11__bF$buf4 _5_ _14_] _2__24_ d_lut_OAI21X1
AINVX1_2 [ss_25_] _15_ d_lut_INVX1
ANAND2X1_2 [wb_sel_i_3_bF$buf4_ wb_dat_i_25_] _16_ d_lut_NAND2X1
AOAI21X1_3 [_15_ wb_sel_i_3_bF$buf3_ _16_] _17_ d_lut_OAI21X1
ANAND3X1_4 [_7__bF$buf5 _17_ _10__bF$buf4] _18_ d_lut_NAND3X1
AOAI21X1_4 [_11__bF$buf3 _15_ _18_] _2__25_ d_lut_OAI21X1
AINVX1_3 [ss_26_] _19_ d_lut_INVX1
ANAND2X1_3 [wb_sel_i_3_bF$buf2_ wb_dat_i_26_] _20_ d_lut_NAND2X1
AOAI21X1_5 [_19_ wb_sel_i_3_bF$buf1_ _20_] _21_ d_lut_OAI21X1
ANAND3X1_5 [_7__bF$buf4 _21_ _10__bF$buf3] _22_ d_lut_NAND3X1
AOAI21X1_6 [_11__bF$buf2 _19_ _22_] _2__26_ d_lut_OAI21X1
AINVX1_4 [ss_27_] _23_ d_lut_INVX1
ANAND2X1_4 [wb_sel_i_3_bF$buf0_ wb_dat_i_27_] _24_ d_lut_NAND2X1
AOAI21X1_7 [_23_ wb_sel_i_3_bF$buf6_ _24_] _25_ d_lut_OAI21X1
ANAND3X1_6 [_7__bF$buf3 _25_ _10__bF$buf2] _26_ d_lut_NAND3X1
AOAI21X1_8 [_11__bF$buf1 _23_ _26_] _2__27_ d_lut_OAI21X1
AINVX1_5 [ss_28_] _27_ d_lut_INVX1
ANAND2X1_5 [wb_sel_i_3_bF$buf5_ wb_dat_i_28_] _28_ d_lut_NAND2X1
AOAI21X1_9 [_27_ wb_sel_i_3_bF$buf4_ _28_] _29_ d_lut_OAI21X1
ANAND3X1_7 [_7__bF$buf2 _29_ _10__bF$buf1] _30_ d_lut_NAND3X1
AOAI21X1_10 [_11__bF$buf0 _27_ _30_] _2__28_ d_lut_OAI21X1
AINVX1_6 [ss_29_] _31_ d_lut_INVX1
ANAND2X1_6 [wb_sel_i_3_bF$buf3_ wb_dat_i_29_] _32_ d_lut_NAND2X1
AOAI21X1_11 [_31_ wb_sel_i_3_bF$buf2_ _32_] _33_ d_lut_OAI21X1
ANAND3X1_8 [_7__bF$buf1 _33_ _10__bF$buf0] _34_ d_lut_NAND3X1
AOAI21X1_12 [_11__bF$buf4 _31_ _34_] _2__29_ d_lut_OAI21X1
AINVX1_7 [ss_30_] _35_ d_lut_INVX1
ANAND2X1_7 [wb_sel_i_3_bF$buf1_ wb_dat_i_30_] _36_ d_lut_NAND2X1
AOAI21X1_13 [_35_ wb_sel_i_3_bF$buf0_ _36_] _37_ d_lut_OAI21X1
ANAND3X1_9 [_7__bF$buf0 _37_ _10__bF$buf6] _38_ d_lut_NAND3X1
AOAI21X1_14 [_11__bF$buf3 _35_ _38_] _2__30_ d_lut_OAI21X1
AINVX1_8 [ss_31_] _39_ d_lut_INVX1
ANAND2X1_8 [wb_sel_i_3_bF$buf6_ wb_dat_i_31_] _40_ d_lut_NAND2X1
AOAI21X1_15 [_39_ wb_sel_i_3_bF$buf5_ _40_] _41_ d_lut_OAI21X1
ANAND3X1_10 [_7__bF$buf7 _41_ _10__bF$buf5] _42_ d_lut_NAND3X1
AOAI21X1_16 [_11__bF$buf2 _39_ _42_] _2__31_ d_lut_OAI21X1
AINVX1_9 [ss_16_] _43_ d_lut_INVX1
ANAND2X1_9 [wb_dat_i_16_ wb_sel_i_2_bF$buf6_] _44_ d_lut_NAND2X1
AOAI21X1_17 [_43_ wb_sel_i_2_bF$buf5_ _44_] _45_ d_lut_OAI21X1
ANAND3X1_11 [_7__bF$buf6 _45_ _10__bF$buf4] _46_ d_lut_NAND3X1
AOAI21X1_18 [_11__bF$buf1 _43_ _46_] _2__16_ d_lut_OAI21X1
AINVX1_10 [ss_17_] _47_ d_lut_INVX1
ANAND2X1_10 [wb_sel_i_2_bF$buf4_ wb_dat_i_17_] _48_ d_lut_NAND2X1
AOAI21X1_19 [_47_ wb_sel_i_2_bF$buf3_ _48_] _49_ d_lut_OAI21X1
ANAND3X1_12 [_7__bF$buf5 _49_ _10__bF$buf3] _50_ d_lut_NAND3X1
AOAI21X1_20 [_11__bF$buf0 _47_ _50_] _2__17_ d_lut_OAI21X1
AINVX1_11 [ss_18_] _51_ d_lut_INVX1
ANAND2X1_11 [wb_sel_i_2_bF$buf2_ wb_dat_i_18_] _52_ d_lut_NAND2X1
AOAI21X1_21 [_51_ wb_sel_i_2_bF$buf1_ _52_] _53_ d_lut_OAI21X1
ANAND3X1_13 [_7__bF$buf4 _53_ _10__bF$buf2] _54_ d_lut_NAND3X1
AOAI21X1_22 [_11__bF$buf4 _51_ _54_] _2__18_ d_lut_OAI21X1
AINVX1_12 [ss_19_] _55_ d_lut_INVX1
ANAND2X1_12 [wb_sel_i_2_bF$buf0_ wb_dat_i_19_] _56_ d_lut_NAND2X1
AOAI21X1_23 [_55_ wb_sel_i_2_bF$buf6_ _56_] _57_ d_lut_OAI21X1
ANAND3X1_14 [_7__bF$buf3 _57_ _10__bF$buf1] _58_ d_lut_NAND3X1
AOAI21X1_24 [_11__bF$buf3 _55_ _58_] _2__19_ d_lut_OAI21X1
AINVX1_13 [ss_20_] _59_ d_lut_INVX1
ANAND2X1_13 [wb_sel_i_2_bF$buf5_ wb_dat_i_20_] _60_ d_lut_NAND2X1
AOAI21X1_25 [_59_ wb_sel_i_2_bF$buf4_ _60_] _61_ d_lut_OAI21X1
ANAND3X1_15 [_7__bF$buf2 _61_ _10__bF$buf0] _62_ d_lut_NAND3X1
AOAI21X1_26 [_11__bF$buf2 _59_ _62_] _2__20_ d_lut_OAI21X1
AINVX1_14 [ss_21_] _63_ d_lut_INVX1
ANAND2X1_14 [wb_sel_i_2_bF$buf3_ wb_dat_i_21_] _64_ d_lut_NAND2X1
AOAI21X1_27 [_63_ wb_sel_i_2_bF$buf2_ _64_] _65_ d_lut_OAI21X1
ANAND3X1_16 [_7__bF$buf1 _65_ _10__bF$buf6] _66_ d_lut_NAND3X1
AOAI21X1_28 [_11__bF$buf1 _63_ _66_] _2__21_ d_lut_OAI21X1
AINVX1_15 [ss_22_] _67_ d_lut_INVX1
ANAND2X1_15 [wb_sel_i_2_bF$buf1_ wb_dat_i_22_] _68_ d_lut_NAND2X1
AOAI21X1_29 [_67_ wb_sel_i_2_bF$buf0_ _68_] _69_ d_lut_OAI21X1
ANAND3X1_17 [_7__bF$buf0 _69_ _10__bF$buf5] _70_ d_lut_NAND3X1
AOAI21X1_30 [_11__bF$buf0 _67_ _70_] _2__22_ d_lut_OAI21X1
AINVX1_16 [ss_23_] _71_ d_lut_INVX1
ANAND2X1_16 [wb_sel_i_2_bF$buf6_ wb_dat_i_23_] _72_ d_lut_NAND2X1
AOAI21X1_31 [_71_ wb_sel_i_2_bF$buf5_ _72_] _73_ d_lut_OAI21X1
ANAND3X1_18 [_7__bF$buf7 _73_ _10__bF$buf4] _74_ d_lut_NAND3X1
AOAI21X1_32 [_11__bF$buf4 _71_ _74_] _2__23_ d_lut_OAI21X1
AINVX2_1 [ss_8_] _75_ d_lut_INVX2
ANAND2X1_17 [wb_dat_i_8_ wb_sel_i_1_bF$buf7_] _76_ d_lut_NAND2X1
AOAI21X1_33 [_75_ wb_sel_i_1_bF$buf6_ _76_] _77_ d_lut_OAI21X1
ANAND3X1_19 [_7__bF$buf6 _77_ _10__bF$buf3] _78_ d_lut_NAND3X1
AOAI21X1_34 [_11__bF$buf3 _75_ _78_] _2__8_ d_lut_OAI21X1
AINVX2_2 [ss_9_] _79_ d_lut_INVX2
ANAND2X1_18 [wb_sel_i_1_bF$buf5_ wb_dat_i_9_] _80_ d_lut_NAND2X1
AOAI21X1_35 [_79_ wb_sel_i_1_bF$buf4_ _80_] _81_ d_lut_OAI21X1
ANAND3X1_20 [_7__bF$buf5 _81_ _10__bF$buf2] _82_ d_lut_NAND3X1
AOAI21X1_36 [_11__bF$buf2 _79_ _82_] _2__9_ d_lut_OAI21X1
AINVX2_3 [ss_10_] _83_ d_lut_INVX2
ANAND2X1_19 [wb_sel_i_1_bF$buf3_ wb_dat_i_10_] _84_ d_lut_NAND2X1
AOAI21X1_37 [_83_ wb_sel_i_1_bF$buf2_ _84_] _85_ d_lut_OAI21X1
ANAND3X1_21 [_7__bF$buf4 _85_ _10__bF$buf1] _86_ d_lut_NAND3X1
AOAI21X1_38 [_11__bF$buf1 _83_ _86_] _2__10_ d_lut_OAI21X1
AINVX2_4 [ss_11_] _87_ d_lut_INVX2
ANAND2X1_20 [wb_sel_i_1_bF$buf1_ wb_dat_i_11_] _88_ d_lut_NAND2X1
AOAI21X1_39 [_87_ wb_sel_i_1_bF$buf0_ _88_] _89_ d_lut_OAI21X1
ANAND3X1_22 [_7__bF$buf3 _89_ _10__bF$buf0] _90_ d_lut_NAND3X1
AOAI21X1_40 [_11__bF$buf0 _87_ _90_] _2__11_ d_lut_OAI21X1
AINVX2_5 [ss_12_] _91_ d_lut_INVX2
ANAND2X1_21 [wb_sel_i_1_bF$buf7_ wb_dat_i_12_] _92_ d_lut_NAND2X1
AOAI21X1_41 [_91_ wb_sel_i_1_bF$buf6_ _92_] _93_ d_lut_OAI21X1
ANAND3X1_23 [_7__bF$buf2 _93_ _10__bF$buf6] _94_ d_lut_NAND3X1
AOAI21X1_42 [_11__bF$buf4 _91_ _94_] _2__12_ d_lut_OAI21X1
AINVX2_6 [ss_13_] _95_ d_lut_INVX2
ANAND2X1_22 [wb_sel_i_1_bF$buf5_ wb_dat_i_13_] _96_ d_lut_NAND2X1
AOAI21X1_43 [_95_ wb_sel_i_1_bF$buf4_ _96_] _97_ d_lut_OAI21X1
ANAND3X1_24 [_7__bF$buf1 _97_ _10__bF$buf5] _98_ d_lut_NAND3X1
AOAI21X1_44 [_11__bF$buf3 _95_ _98_] _2__13_ d_lut_OAI21X1
AINVX2_7 [ss_14_] _99_ d_lut_INVX2
ANAND2X1_23 [wb_sel_i_1_bF$buf3_ wb_dat_i_14_] _100_ d_lut_NAND2X1
AOAI21X1_45 [_99_ wb_sel_i_1_bF$buf2_ _100_] _101_ d_lut_OAI21X1
ANAND3X1_25 [_7__bF$buf0 _101_ _10__bF$buf4] _102_ d_lut_NAND3X1
AOAI21X1_46 [_11__bF$buf2 _99_ _102_] _2__14_ d_lut_OAI21X1
AINVX2_8 [ss_15_] _103_ d_lut_INVX2
ANAND2X1_24 [wb_sel_i_1_bF$buf1_ wb_dat_i_15_] _104_ d_lut_NAND2X1
AOAI21X1_47 [_103_ wb_sel_i_1_bF$buf0_ _104_] _105_ d_lut_OAI21X1
ANAND3X1_26 [_7__bF$buf7 _105_ _10__bF$buf3] _106_ d_lut_NAND3X1
AOAI21X1_48 [_11__bF$buf1 _103_ _106_] _2__15_ d_lut_OAI21X1
AINVX2_9 [ss_0_] _107_ d_lut_INVX2
ANAND2X1_25 [wb_dat_i_0_ wb_sel_i_0_bF$buf7_] _108_ d_lut_NAND2X1
AOAI21X1_49 [_107_ wb_sel_i_0_bF$buf6_ _108_] _109_ d_lut_OAI21X1
ANAND3X1_27 [_7__bF$buf6 _109_ _10__bF$buf2] _110_ d_lut_NAND3X1
AOAI21X1_50 [_11__bF$buf0 _107_ _110_] _2__0_ d_lut_OAI21X1
AINVX2_10 [ss_1_] _111_ d_lut_INVX2
ANAND2X1_26 [wb_sel_i_0_bF$buf5_ wb_dat_i_1_] _112_ d_lut_NAND2X1
AOAI21X1_51 [_111_ wb_sel_i_0_bF$buf4_ _112_] _113_ d_lut_OAI21X1
ANAND3X1_28 [_7__bF$buf5 _113_ _10__bF$buf1] _114_ d_lut_NAND3X1
AOAI21X1_52 [_11__bF$buf4 _111_ _114_] _2__1_ d_lut_OAI21X1
AINVX2_11 [ss_2_] _115_ d_lut_INVX2
ANAND2X1_27 [wb_sel_i_0_bF$buf3_ wb_dat_i_2_] _116_ d_lut_NAND2X1
AOAI21X1_53 [_115_ wb_sel_i_0_bF$buf2_ _116_] _117_ d_lut_OAI21X1
ANAND3X1_29 [_7__bF$buf4 _117_ _10__bF$buf0] _118_ d_lut_NAND3X1
AOAI21X1_54 [_11__bF$buf3 _115_ _118_] _2__2_ d_lut_OAI21X1
AINVX2_12 [ss_3_] _119_ d_lut_INVX2
ANAND2X1_28 [wb_sel_i_0_bF$buf1_ wb_dat_i_3_] _120_ d_lut_NAND2X1
AOAI21X1_55 [_119_ wb_sel_i_0_bF$buf0_ _120_] _121_ d_lut_OAI21X1
ANAND3X1_30 [_7__bF$buf3 _121_ _10__bF$buf6] _122_ d_lut_NAND3X1
AOAI21X1_56 [_11__bF$buf2 _119_ _122_] _2__3_ d_lut_OAI21X1
AINVX2_13 [ss_4_] _123_ d_lut_INVX2
ANAND2X1_29 [wb_sel_i_0_bF$buf7_ wb_dat_i_4_] _124_ d_lut_NAND2X1
AOAI21X1_57 [_123_ wb_sel_i_0_bF$buf6_ _124_] _125_ d_lut_OAI21X1
ANAND3X1_31 [_7__bF$buf2 _125_ _10__bF$buf5] _126_ d_lut_NAND3X1
AOAI21X1_58 [_11__bF$buf1 _123_ _126_] _2__4_ d_lut_OAI21X1
AINVX2_14 [ss_5_] _127_ d_lut_INVX2
ANAND2X1_30 [wb_sel_i_0_bF$buf5_ wb_dat_i_5_] _128_ d_lut_NAND2X1
AOAI21X1_59 [_127_ wb_sel_i_0_bF$buf4_ _128_] _129_ d_lut_OAI21X1
ANAND3X1_32 [_7__bF$buf1 _129_ _10__bF$buf4] _130_ d_lut_NAND3X1
AOAI21X1_60 [_11__bF$buf0 _127_ _130_] _2__5_ d_lut_OAI21X1
AINVX2_15 [ss_6_] _131_ d_lut_INVX2
ANAND2X1_31 [wb_sel_i_0_bF$buf3_ wb_dat_i_6_] _132_ d_lut_NAND2X1
AOAI21X1_61 [_131_ wb_sel_i_0_bF$buf2_ _132_] _133_ d_lut_OAI21X1
ANAND3X1_33 [_7__bF$buf0 _133_ _10__bF$buf3] _134_ d_lut_NAND3X1
AOAI21X1_62 [_11__bF$buf4 _131_ _134_] _2__6_ d_lut_OAI21X1
AINVX2_16 [ss_7_] _135_ d_lut_INVX2
ANAND2X1_32 [wb_sel_i_0_bF$buf1_ wb_dat_i_7_] _136_ d_lut_NAND2X1
AOAI21X1_63 [_135_ wb_sel_i_0_bF$buf0_ _136_] _137_ d_lut_OAI21X1
ANAND3X1_34 [_7__bF$buf7 _137_ _10__bF$buf2] _138_ d_lut_NAND3X1
AOAI21X1_64 [_11__bF$buf3 _135_ _138_] _2__7_ d_lut_OAI21X1
AINVX1_17 [rx_negedge_bF$buf3] _139_ d_lut_INVX1
AINVX2_17 [wb_adr_i_3_] _140_ d_lut_INVX2
ANAND3X1_35 [wb_adr_i_4_ _8_ _140_] _141_ d_lut_NAND3X1
AINVX8_2 [_141_] _142_ d_lut_INVX8
AAND2X2_2 [_142_ _7__bF$buf6] _143_ d_lut_AND2X2
AOAI21X1_65 [_139_ wb_sel_i_1_bF$buf7_ _80_] _144_ d_lut_OAI21X1
ANAND3X1_36 [_144_ _7__bF$buf5 _142_] _145_ d_lut_NAND3X1
AOAI21X1_66 [_143_ _139_ _145_] _0__9_ d_lut_OAI21X1
AINVX1_18 [shift.tx_negedge] _146_ d_lut_INVX1
AOAI21X1_67 [_146_ wb_sel_i_1_bF$buf6_ _84_] _147_ d_lut_OAI21X1
ANAND3X1_37 [_147_ _7__bF$buf4 _142_] _148_ d_lut_NAND3X1
AOAI21X1_68 [_143_ _146_ _148_] _0__10_ d_lut_OAI21X1
AINVX2_18 [lsb_bF$buf3] _149_ d_lut_INVX2
AOAI21X1_69 [_149_ wb_sel_i_1_bF$buf5_ _88_] _150_ d_lut_OAI21X1
ANAND3X1_38 [_150_ _7__bF$buf3 _142_] _151_ d_lut_NAND3X1
AOAI21X1_70 [_143_ _149_ _151_] _0__11_ d_lut_OAI21X1
AINVX1_19 [ie] _152_ d_lut_INVX1
AOAI21X1_71 [_152_ wb_sel_i_1_bF$buf4_ _92_] _153_ d_lut_OAI21X1
ANAND3X1_39 [_153_ _7__bF$buf2 _142_] _154_ d_lut_NAND3X1
AOAI21X1_72 [_143_ _152_ _154_] _0__12_ d_lut_OAI21X1
AINVX8_3 [ass] _155_ d_lut_INVX8
AOAI21X1_73 [_155__bF$buf4 wb_sel_i_1_bF$buf3_ _96_] _156_ d_lut_OAI21X1
ANAND3X1_40 [_156_ _7__bF$buf1 _142_] _157_ d_lut_NAND3X1
AOAI21X1_74 [_143_ _155__bF$buf3 _157_] _0__13_ d_lut_OAI21X1
AINVX1_20 [clgen.go] _158_ d_lut_INVX1
AOAI21X1_75 [_158_ wb_sel_i_1_bF$buf2_ _76_] _159_ d_lut_OAI21X1
ANAND3X1_41 [_159_ _7__bF$buf0 _142_] _160_ d_lut_NAND3X1
AINVX1_21 [clgen.pos_edge] _161_ d_lut_INVX1
ANAND2X1_33 [clgen.enable_bF$buf7 clgen.last_clk] _162_ d_lut_NAND2X1
AOAI21X1_76 [_162_ _161_ clgen.go] _163_ d_lut_OAI21X1
AOAI21X1_77 [_143_ _163_ _160_] _0__8_ d_lut_OAI21X1
AINVX1_22 [char_len_0_] _164_ d_lut_INVX1
AOAI21X1_78 [_164_ wb_sel_i_0_bF$buf7_ _108_] _165_ d_lut_OAI21X1
ANAND3X1_42 [_165_ _7__bF$buf7 _142_] _166_ d_lut_NAND3X1
AOAI21X1_79 [_143_ _164_ _166_] _0__0_ d_lut_OAI21X1
AINVX1_23 [char_len_1_] _167_ d_lut_INVX1
AOAI21X1_80 [_167_ wb_sel_i_0_bF$buf6_ _112_] _168_ d_lut_OAI21X1
ANAND3X1_43 [_168_ _7__bF$buf6 _142_] _169_ d_lut_NAND3X1
AOAI21X1_81 [_143_ _167_ _169_] _0__1_ d_lut_OAI21X1
AINVX1_24 [char_len_2_] _170_ d_lut_INVX1
AOAI21X1_82 [_170_ wb_sel_i_0_bF$buf5_ _116_] _171_ d_lut_OAI21X1
ANAND3X1_44 [_171_ _7__bF$buf5 _142_] _172_ d_lut_NAND3X1
AOAI21X1_83 [_143_ _170_ _172_] _0__2_ d_lut_OAI21X1
AINVX2_19 [char_len_3_] _173_ d_lut_INVX2
AOAI21X1_84 [_173_ wb_sel_i_0_bF$buf4_ _120_] _174_ d_lut_OAI21X1
ANAND3X1_45 [_174_ _7__bF$buf4 _142_] _175_ d_lut_NAND3X1