*SPICE netlist created from BLIF module spi_top by blif2BSpice
.include /usr/local/share/qflow/tech/osu018/osu018_stdcells.sp
.subckt spi_top vdd gnd wb_clk_i wb_rst_i wb_adr_i[0] wb_adr_i[1] wb_adr_i[2] wb_adr_i[3] wb_adr_i[4] wb_dat_i[0] wb_dat_i[1] wb_dat_i[2] wb_dat_i[3] wb_dat_i[4] wb_dat_i[5] wb_dat_i[6] wb_dat_i[7] wb_dat_i[8] wb_dat_i[9] wb_dat_i[10] wb_dat_i[11] wb_dat_i[12] wb_dat_i[13] wb_dat_i[14] wb_dat_i[15] wb_dat_i[16] wb_dat_i[17] wb_dat_i[18] wb_dat_i[19] wb_dat_i[20] wb_dat_i[21] wb_dat_i[22] wb_dat_i[23] wb_dat_i[24] wb_dat_i[25] wb_dat_i[26] wb_dat_i[27] wb_dat_i[28] wb_dat_i[29] wb_dat_i[30] wb_dat_i[31] wb_sel_i[0] wb_sel_i[1] wb_sel_i[2] wb_sel_i[3] wb_we_i wb_stb_i wb_cyc_i miso_pad_i wb_dat_o[0] wb_dat_o[1] wb_dat_o[2] wb_dat_o[3] wb_dat_o[4] wb_dat_o[5] wb_dat_o[6] wb_dat_o[7] wb_dat_o[8] wb_dat_o[9] wb_dat_o[10] wb_dat_o[11] wb_dat_o[12] wb_dat_o[13] wb_dat_o[14] wb_dat_o[15] wb_dat_o[16] wb_dat_o[17] wb_dat_o[18] wb_dat_o[19] wb_dat_o[20] wb_dat_o[21] wb_dat_o[22] wb_dat_o[23] wb_dat_o[24] wb_dat_o[25] wb_dat_o[26] wb_dat_o[27] wb_dat_o[28] wb_dat_o[29] wb_dat_o[30] wb_dat_o[31] wb_ack_o wb_err_o wb_int_o ss_pad_o[0] ss_pad_o[1] ss_pad_o[2] ss_pad_o[3] ss_pad_o[4] ss_pad_o[5] ss_pad_o[6] ss_pad_o[7] ss_pad_o[8] ss_pad_o[9] ss_pad_o[10] ss_pad_o[11] ss_pad_o[12] ss_pad_o[13] ss_pad_o[14] ss_pad_o[15] ss_pad_o[16] ss_pad_o[17] ss_pad_o[18] ss_pad_o[19] ss_pad_o[20] ss_pad_o[21] ss_pad_o[22] ss_pad_o[23] ss_pad_o[24] ss_pad_o[25] ss_pad_o[26] ss_pad_o[27] ss_pad_o[28] ss_pad_o[29] ss_pad_o[30] ss_pad_o[31] sclk_pad_o mosi_pad_o 
XCLKBUF1_1 wb_clk_i_bF$buf0 vdd gnd wb_clk_i_bF$buf10_bF$buf3 CLKBUF1
XCLKBUF1_2 wb_clk_i_bF$buf7 vdd gnd wb_clk_i_bF$buf10_bF$buf2 CLKBUF1
XCLKBUF1_3 wb_clk_i_bF$buf6 vdd gnd wb_clk_i_bF$buf10_bF$buf1 CLKBUF1
XCLKBUF1_4 wb_clk_i_bF$buf8 vdd gnd wb_clk_i_bF$buf10_bF$buf0 CLKBUF1
XCLKBUF1_5 wb_clk_i_bF$buf0 vdd gnd wb_clk_i_bF$buf11_bF$buf3 CLKBUF1
XCLKBUF1_6 wb_clk_i_bF$buf2 vdd gnd wb_clk_i_bF$buf11_bF$buf2 CLKBUF1
XCLKBUF1_7 wb_clk_i_bF$buf3 vdd gnd wb_clk_i_bF$buf11_bF$buf1 CLKBUF1
XCLKBUF1_8 wb_clk_i_bF$buf7 vdd gnd wb_clk_i_bF$buf11_bF$buf0 CLKBUF1
XCLKBUF1_9 wb_clk_i_bF$buf6 vdd gnd wb_clk_i_bF$buf12_bF$buf3 CLKBUF1
XCLKBUF1_10 wb_clk_i_bF$buf10 vdd gnd wb_clk_i_bF$buf12_bF$buf2 CLKBUF1
XCLKBUF1_11 wb_clk_i_bF$buf11 vdd gnd wb_clk_i_bF$buf12_bF$buf1 CLKBUF1
XCLKBUF1_12 wb_clk_i_bF$buf5 vdd gnd wb_clk_i_bF$buf12_bF$buf0 CLKBUF1
XCLKBUF1_13 wb_clk_i_bF$buf0 vdd gnd wb_clk_i_bF$buf13_bF$buf3 CLKBUF1
XCLKBUF1_14 wb_clk_i_bF$buf0 vdd gnd wb_clk_i_bF$buf13_bF$buf2 CLKBUF1
XCLKBUF1_15 wb_clk_i_bF$buf14 vdd gnd wb_clk_i_bF$buf13_bF$buf1 CLKBUF1
XCLKBUF1_16 wb_clk_i_bF$buf1 vdd gnd wb_clk_i_bF$buf13_bF$buf0 CLKBUF1
XCLKBUF1_17 wb_clk_i_bF$buf0 vdd gnd wb_clk_i_bF$buf14_bF$buf3 CLKBUF1
XCLKBUF1_18 wb_clk_i_bF$buf6 vdd gnd wb_clk_i_bF$buf14_bF$buf2 CLKBUF1
XCLKBUF1_19 wb_clk_i_bF$buf0 vdd gnd wb_clk_i_bF$buf14_bF$buf1 CLKBUF1
XCLKBUF1_20 wb_clk_i_bF$buf10 vdd gnd wb_clk_i_bF$buf14_bF$buf0 CLKBUF1
XCLKBUF1_21 wb_clk_i_bF$buf4 vdd gnd wb_clk_i_bF$buf2_bF$buf3 CLKBUF1
XCLKBUF1_22 wb_clk_i_bF$buf13 vdd gnd wb_clk_i_bF$buf2_bF$buf2 CLKBUF1
XCLKBUF1_23 wb_clk_i_bF$buf12 vdd gnd wb_clk_i_bF$buf2_bF$buf1 CLKBUF1
XCLKBUF1_24 wb_clk_i_bF$buf1 vdd gnd wb_clk_i_bF$buf2_bF$buf0 CLKBUF1
XCLKBUF1_25 wb_clk_i_bF$buf4 vdd gnd wb_clk_i_bF$buf3_bF$buf3 CLKBUF1
XCLKBUF1_26 wb_clk_i_bF$buf11 vdd gnd wb_clk_i_bF$buf3_bF$buf2 CLKBUF1
XCLKBUF1_27 wb_clk_i_bF$buf13 vdd gnd wb_clk_i_bF$buf3_bF$buf1 CLKBUF1
XCLKBUF1_28 wb_clk_i_bF$buf1 vdd gnd wb_clk_i_bF$buf3_bF$buf0 CLKBUF1
XCLKBUF1_29 wb_clk_i_bF$buf8 vdd gnd wb_clk_i_bF$buf4_bF$buf3 CLKBUF1
XCLKBUF1_30 wb_clk_i_bF$buf1 vdd gnd wb_clk_i_bF$buf4_bF$buf2 CLKBUF1
XCLKBUF1_31 wb_clk_i_bF$buf0 vdd gnd wb_clk_i_bF$buf4_bF$buf1 CLKBUF1
XCLKBUF1_32 wb_clk_i_bF$buf9 vdd gnd wb_clk_i_bF$buf4_bF$buf0 CLKBUF1
XCLKBUF1_33 wb_clk_i_bF$buf1 vdd gnd wb_clk_i_bF$buf5_bF$buf3 CLKBUF1
XCLKBUF1_34 wb_clk_i_bF$buf1 vdd gnd wb_clk_i_bF$buf5_bF$buf2 CLKBUF1
XCLKBUF1_35 wb_clk_i_bF$buf3 vdd gnd wb_clk_i_bF$buf5_bF$buf1 CLKBUF1
XCLKBUF1_36 wb_clk_i_bF$buf14 vdd gnd wb_clk_i_bF$buf5_bF$buf0 CLKBUF1
XCLKBUF1_37 wb_clk_i_bF$buf14 vdd gnd wb_clk_i_bF$buf6_bF$buf3 CLKBUF1
XCLKBUF1_38 wb_clk_i_bF$buf10 vdd gnd wb_clk_i_bF$buf6_bF$buf2 CLKBUF1
XCLKBUF1_39 wb_clk_i_bF$buf0 vdd gnd wb_clk_i_bF$buf6_bF$buf1 CLKBUF1
XCLKBUF1_40 wb_clk_i_bF$buf12 vdd gnd wb_clk_i_bF$buf6_bF$buf0 CLKBUF1
XCLKBUF1_41 wb_clk_i_bF$buf3 vdd gnd wb_clk_i_bF$buf7_bF$buf3 CLKBUF1
XCLKBUF1_42 wb_clk_i_bF$buf1 vdd gnd wb_clk_i_bF$buf7_bF$buf2 CLKBUF1
XCLKBUF1_43 wb_clk_i_bF$buf0 vdd gnd wb_clk_i_bF$buf7_bF$buf1 CLKBUF1
XCLKBUF1_44 wb_clk_i_bF$buf8 vdd gnd wb_clk_i_bF$buf7_bF$buf0 CLKBUF1
XCLKBUF1_45 wb_clk_i_bF$buf1 vdd gnd wb_clk_i_bF$buf8_bF$buf3 CLKBUF1
XCLKBUF1_46 wb_clk_i_bF$buf14 vdd gnd wb_clk_i_bF$buf8_bF$buf2 CLKBUF1
XCLKBUF1_47 wb_clk_i_bF$buf0 vdd gnd wb_clk_i_bF$buf8_bF$buf1 CLKBUF1
XCLKBUF1_48 wb_clk_i_bF$buf2 vdd gnd wb_clk_i_bF$buf8_bF$buf0 CLKBUF1
XCLKBUF1_49 wb_clk_i_bF$buf6 vdd gnd wb_clk_i_bF$buf9_bF$buf3 CLKBUF1
XCLKBUF1_50 wb_clk_i_bF$buf0 vdd gnd wb_clk_i_bF$buf9_bF$buf2 CLKBUF1
XCLKBUF1_51 wb_clk_i_bF$buf5 vdd gnd wb_clk_i_bF$buf9_bF$buf1 CLKBUF1
XCLKBUF1_52 wb_clk_i_bF$buf1 vdd gnd wb_clk_i_bF$buf9_bF$buf0 CLKBUF1
XBUFX4_1 vdd gnd _450_ _450__bF$buf3 BUFX4
XBUFX4_2 vdd gnd _450_ _450__bF$buf2 BUFX4
XBUFX4_3 vdd gnd _450_ _450__bF$buf1 BUFX4
XBUFX4_4 vdd gnd _450_ _450__bF$buf0 BUFX4
XBUFX4_5 vdd gnd wb_sel_i[1] wb_sel_i[1_bF$buf7] BUFX4
XBUFX4_6 vdd gnd wb_sel_i[1] wb_sel_i[1_bF$buf6] BUFX4
XBUFX4_7 vdd gnd wb_sel_i[1] wb_sel_i[1_bF$buf5] BUFX4
XBUFX4_8 vdd gnd wb_sel_i[1] wb_sel_i[1_bF$buf4] BUFX4
XBUFX4_9 vdd gnd wb_sel_i[1] wb_sel_i[1_bF$buf3] BUFX4
XBUFX4_10 vdd gnd wb_sel_i[1] wb_sel_i[1_bF$buf2] BUFX4
XBUFX4_11 vdd gnd wb_sel_i[1] wb_sel_i[1_bF$buf1] BUFX4
XBUFX4_12 vdd gnd wb_sel_i[1] wb_sel_i[1_bF$buf0] BUFX4
XBUFX4_13 vdd gnd _7_ _7__bF$buf7 BUFX4
XBUFX4_14 vdd gnd _7_ _7__bF$buf6 BUFX4
XBUFX4_15 vdd gnd _7_ _7__bF$buf5 BUFX4
XBUFX4_16 vdd gnd _7_ _7__bF$buf4 BUFX4
XBUFX4_17 vdd gnd _7_ _7__bF$buf3 BUFX4
XBUFX4_18 vdd gnd _7_ _7__bF$buf2 BUFX4
XBUFX4_19 vdd gnd _7_ _7__bF$buf1 BUFX4
XBUFX4_20 vdd gnd _7_ _7__bF$buf0 BUFX4
XBUFX4_21 vdd gnd _10_ _10__bF$buf6 BUFX4
XBUFX4_22 vdd gnd _10_ _10__bF$buf5 BUFX4
XBUFX4_23 vdd gnd _10_ _10__bF$buf4 BUFX4
XBUFX4_24 vdd gnd _10_ _10__bF$buf3 BUFX4
XBUFX4_25 vdd gnd _10_ _10__bF$buf2 BUFX4
XBUFX4_26 vdd gnd _10_ _10__bF$buf1 BUFX4
XBUFX4_27 vdd gnd _10_ _10__bF$buf0 BUFX4
XBUFX4_28 vdd gnd _955_ _955__bF$buf6 BUFX4
XBUFX4_29 vdd gnd _955_ _955__bF$buf5 BUFX4
XBUFX4_30 vdd gnd _955_ _955__bF$buf4 BUFX4
XBUFX4_31 vdd gnd _955_ _955__bF$buf3 BUFX4
XBUFX4_32 vdd gnd _955_ _955__bF$buf2 BUFX4
XBUFX4_33 vdd gnd _955_ _955__bF$buf1 BUFX4
XBUFX4_34 vdd gnd _955_ _955__bF$buf0 BUFX4
XBUFX4_35 vdd gnd _2097_ _2097__bF$buf4 BUFX4
XBUFX4_36 vdd gnd _2097_ _2097__bF$buf3 BUFX4
XBUFX4_37 vdd gnd _2097_ _2097__bF$buf2 BUFX4
XBUFX4_38 vdd gnd _2097_ _2097__bF$buf1 BUFX4
XBUFX4_39 vdd gnd _2097_ _2097__bF$buf0 BUFX4
XBUFX4_40 vdd gnd _1709_ _1709__bF$buf6 BUFX4
XBUFX4_41 vdd gnd _1709_ _1709__bF$buf5 BUFX4
XBUFX4_42 vdd gnd _1709_ _1709__bF$buf4 BUFX4
XBUFX4_43 vdd gnd _1709_ _1709__bF$buf3 BUFX4
XBUFX4_44 vdd gnd _1709_ _1709__bF$buf2 BUFX4
XBUFX4_45 vdd gnd _1709_ _1709__bF$buf1 BUFX4
XBUFX4_46 vdd gnd _1709_ _1709__bF$buf0 BUFX4
XBUFX4_47 vdd gnd _711_ _711__bF$buf3 BUFX4
XBUFX4_48 vdd gnd _711_ _711__bF$buf2 BUFX4
XBUFX4_49 vdd gnd _711_ _711__bF$buf1 BUFX4
XBUFX4_50 vdd gnd _711_ _711__bF$buf0 BUFX4
XBUFX4_51 vdd gnd _708_ _708__bF$buf5 BUFX4
XBUFX4_52 vdd gnd _708_ _708__bF$buf4 BUFX4
XBUFX4_53 vdd gnd _708_ _708__bF$buf3 BUFX4
XBUFX4_54 vdd gnd _708_ _708__bF$buf2 BUFX4
XBUFX4_55 vdd gnd _708_ _708__bF$buf1 BUFX4
XBUFX4_56 vdd gnd _708_ _708__bF$buf0 BUFX4
XBUFX4_57 vdd gnd _705_ _705__bF$buf10 BUFX4
XBUFX4_58 vdd gnd _705_ _705__bF$buf9 BUFX4
XBUFX4_59 vdd gnd _705_ _705__bF$buf8 BUFX4
XBUFX4_60 vdd gnd _705_ _705__bF$buf7 BUFX4
XBUFX4_61 vdd gnd _705_ _705__bF$buf6 BUFX4
XBUFX4_62 vdd gnd _705_ _705__bF$buf5 BUFX4
XBUFX4_63 vdd gnd _705_ _705__bF$buf4 BUFX4
XBUFX4_64 vdd gnd _705_ _705__bF$buf3 BUFX4
XBUFX4_65 vdd gnd _705_ _705__bF$buf2 BUFX4
XBUFX4_66 vdd gnd _705_ _705__bF$buf1 BUFX4
XBUFX4_67 vdd gnd _705_ _705__bF$buf0 BUFX4
XBUFX4_68 vdd gnd wb_sel_i[3] wb_sel_i[3_bF$buf6] BUFX4
XBUFX4_69 vdd gnd wb_sel_i[3] wb_sel_i[3_bF$buf5] BUFX4
XBUFX4_70 vdd gnd wb_sel_i[3] wb_sel_i[3_bF$buf4] BUFX4
XBUFX4_71 vdd gnd wb_sel_i[3] wb_sel_i[3_bF$buf3] BUFX4
XBUFX4_72 vdd gnd wb_sel_i[3] wb_sel_i[3_bF$buf2] BUFX4
XBUFX4_73 vdd gnd wb_sel_i[3] wb_sel_i[3_bF$buf1] BUFX4
XBUFX4_74 vdd gnd wb_sel_i[3] wb_sel_i[3_bF$buf0] BUFX4
XBUFX4_75 vdd gnd _9_ _9__bF$buf3 BUFX4
XBUFX4_76 vdd gnd _9_ _9__bF$buf2 BUFX4
XBUFX4_77 vdd gnd _9_ _9__bF$buf1 BUFX4
XBUFX4_78 vdd gnd _9_ _9__bF$buf0 BUFX4
XBUFX4_79 vdd gnd wb_sel_i[0] wb_sel_i[0_bF$buf7] BUFX4
XBUFX4_80 vdd gnd wb_sel_i[0] wb_sel_i[0_bF$buf6] BUFX4
XBUFX4_81 vdd gnd wb_sel_i[0] wb_sel_i[0_bF$buf5] BUFX4
XBUFX4_82 vdd gnd wb_sel_i[0] wb_sel_i[0_bF$buf4] BUFX4
XBUFX4_83 vdd gnd wb_sel_i[0] wb_sel_i[0_bF$buf3] BUFX4
XBUFX4_84 vdd gnd wb_sel_i[0] wb_sel_i[0_bF$buf2] BUFX4
XBUFX4_85 vdd gnd wb_sel_i[0] wb_sel_i[0_bF$buf1] BUFX4
XBUFX4_86 vdd gnd wb_sel_i[0] wb_sel_i[0_bF$buf0] BUFX4
XBUFX4_87 vdd gnd _481_ _481__bF$buf3 BUFX4
XBUFX4_88 vdd gnd _481_ _481__bF$buf2 BUFX4
XBUFX4_89 vdd gnd _481_ _481__bF$buf1 BUFX4
XBUFX4_90 vdd gnd _481_ _481__bF$buf0 BUFX4
XCLKBUF1_53 wb_clk_i vdd gnd wb_clk_i_bF$buf14 CLKBUF1
XCLKBUF1_54 wb_clk_i vdd gnd wb_clk_i_bF$buf13 CLKBUF1
XCLKBUF1_55 wb_clk_i vdd gnd wb_clk_i_bF$buf12 CLKBUF1
XCLKBUF1_56 wb_clk_i vdd gnd wb_clk_i_bF$buf11 CLKBUF1
XCLKBUF1_57 wb_clk_i vdd gnd wb_clk_i_bF$buf10 CLKBUF1
XCLKBUF1_58 wb_clk_i vdd gnd wb_clk_i_bF$buf9 CLKBUF1
XCLKBUF1_59 wb_clk_i vdd gnd wb_clk_i_bF$buf8 CLKBUF1
XCLKBUF1_60 wb_clk_i vdd gnd wb_clk_i_bF$buf7 CLKBUF1
XCLKBUF1_61 wb_clk_i vdd gnd wb_clk_i_bF$buf6 CLKBUF1
XCLKBUF1_62 wb_clk_i vdd gnd wb_clk_i_bF$buf5 CLKBUF1
XCLKBUF1_63 wb_clk_i vdd gnd wb_clk_i_bF$buf4 CLKBUF1
XCLKBUF1_64 wb_clk_i vdd gnd wb_clk_i_bF$buf3 CLKBUF1
XCLKBUF1_65 wb_clk_i vdd gnd wb_clk_i_bF$buf2 CLKBUF1
XCLKBUF1_66 wb_clk_i vdd gnd wb_clk_i_bF$buf1 CLKBUF1
XCLKBUF1_67 wb_clk_i vdd gnd wb_clk_i_bF$buf0 CLKBUF1
XBUFX4_91 vdd gnd _155_ _155__bF$buf4 BUFX4
XBUFX4_92 vdd gnd _155_ _155__bF$buf3 BUFX4
XBUFX4_93 vdd gnd _155_ _155__bF$buf2 BUFX4
XBUFX4_94 vdd gnd _155_ _155__bF$buf1 BUFX4
XBUFX4_95 vdd gnd _155_ _155__bF$buf0 BUFX4
XBUFX4_96 vdd gnd clgen.enable clgen.enable_bF$buf8 BUFX4
XBUFX4_97 vdd gnd clgen.enable clgen.enable_bF$buf7 BUFX4
XBUFX4_98 vdd gnd clgen.enable clgen.enable_bF$buf6 BUFX4
XBUFX4_99 vdd gnd clgen.enable clgen.enable_bF$buf5 BUFX4
XBUFX4_100 vdd gnd clgen.enable clgen.enable_bF$buf4 BUFX4
XBUFX4_101 vdd gnd clgen.enable clgen.enable_bF$buf3 BUFX4
XBUFX4_102 vdd gnd clgen.enable clgen.enable_bF$buf2 BUFX4
XBUFX4_103 vdd gnd clgen.enable clgen.enable_bF$buf1 BUFX4
XBUFX4_104 vdd gnd clgen.enable clgen.enable_bF$buf0 BUFX4
XBUFX4_105 vdd gnd _190_ _190__bF$buf3 BUFX4
XBUFX4_106 vdd gnd _190_ _190__bF$buf2 BUFX4
XBUFX4_107 vdd gnd _190_ _190__bF$buf1 BUFX4
XBUFX4_108 vdd gnd _190_ _190__bF$buf0 BUFX4
XBUFX4_109 vdd gnd rx_negedge rx_negedge_bF$buf3 BUFX4
XBUFX4_110 vdd gnd rx_negedge rx_negedge_bF$buf2 BUFX4
XBUFX4_111 vdd gnd rx_negedge rx_negedge_bF$buf1 BUFX4
XBUFX4_112 vdd gnd rx_negedge rx_negedge_bF$buf0 BUFX4
XBUFX4_113 vdd gnd _1138_ _1138__bF$buf5 BUFX4
XBUFX4_114 vdd gnd _1138_ _1138__bF$buf4 BUFX4
XBUFX4_115 vdd gnd _1138_ _1138__bF$buf3 BUFX4
XBUFX4_116 vdd gnd _1138_ _1138__bF$buf2 BUFX4
XBUFX4_117 vdd gnd _1138_ _1138__bF$buf1 BUFX4
XBUFX4_118 vdd gnd _1138_ _1138__bF$buf0 BUFX4
XBUFX4_119 vdd gnd _1135_ _1135__bF$buf4 BUFX4
XBUFX4_120 vdd gnd _1135_ _1135__bF$buf3 BUFX4
XBUFX4_121 vdd gnd _1135_ _1135__bF$buf2 BUFX4
XBUFX4_122 vdd gnd _1135_ _1135__bF$buf1 BUFX4
XBUFX4_123 vdd gnd _1135_ _1135__bF$buf0 BUFX4
XBUFX4_124 vdd gnd _369_ _369__bF$buf3 BUFX4
XBUFX4_125 vdd gnd _369_ _369__bF$buf2 BUFX4
XBUFX4_126 vdd gnd _369_ _369__bF$buf1 BUFX4
XBUFX4_127 vdd gnd _369_ _369__bF$buf0 BUFX4
XBUFX4_128 vdd gnd _1073_ _1073__bF$buf10 BUFX4
XBUFX4_129 vdd gnd _1073_ _1073__bF$buf9 BUFX4
XBUFX4_130 vdd gnd _1073_ _1073__bF$buf8 BUFX4
XBUFX4_131 vdd gnd _1073_ _1073__bF$buf7 BUFX4
XBUFX4_132 vdd gnd _1073_ _1073__bF$buf6 BUFX4
XBUFX4_133 vdd gnd _1073_ _1073__bF$buf5 BUFX4
XBUFX4_134 vdd gnd _1073_ _1073__bF$buf4 BUFX4
XBUFX4_135 vdd gnd _1073_ _1073__bF$buf3 BUFX4
XBUFX4_136 vdd gnd _1073_ _1073__bF$buf2 BUFX4
XBUFX4_137 vdd gnd _1073_ _1073__bF$buf1 BUFX4
XBUFX4_138 vdd gnd _1073_ _1073__bF$buf0 BUFX4
XBUFX4_139 vdd gnd _231_ _231__bF$buf8 BUFX4
XBUFX4_140 vdd gnd _231_ _231__bF$buf7 BUFX4
XBUFX4_141 vdd gnd _231_ _231__bF$buf6 BUFX4
XBUFX4_142 vdd gnd _231_ _231__bF$buf5 BUFX4
XBUFX4_143 vdd gnd _231_ _231__bF$buf4 BUFX4
XBUFX4_144 vdd gnd _231_ _231__bF$buf3 BUFX4
XBUFX4_145 vdd gnd _231_ _231__bF$buf2 BUFX4
XBUFX4_146 vdd gnd _231_ _231__bF$buf1 BUFX4
XBUFX4_147 vdd gnd _231_ _231__bF$buf0 BUFX4
XBUFX4_148 vdd gnd _707_ _707__bF$buf4 BUFX4
XBUFX4_149 vdd gnd _707_ _707__bF$buf3 BUFX4
XBUFX4_150 vdd gnd _707_ _707__bF$buf2 BUFX4
XBUFX4_151 vdd gnd _707_ _707__bF$buf1 BUFX4
XBUFX4_152 vdd gnd _707_ _707__bF$buf0 BUFX4
XBUFX4_153 vdd gnd _2237_ _2237__bF$buf5 BUFX4
XBUFX4_154 vdd gnd _2237_ _2237__bF$buf4 BUFX4
XBUFX4_155 vdd gnd _2237_ _2237__bF$buf3 BUFX4
XBUFX4_156 vdd gnd _2237_ _2237__bF$buf2 BUFX4
XBUFX4_157 vdd gnd _2237_ _2237__bF$buf1 BUFX4
XBUFX4_158 vdd gnd _2237_ _2237__bF$buf0 BUFX4
XBUFX4_159 vdd gnd wb_sel_i[2] wb_sel_i[2_bF$buf6] BUFX4
XBUFX4_160 vdd gnd wb_sel_i[2] wb_sel_i[2_bF$buf5] BUFX4
XBUFX4_161 vdd gnd wb_sel_i[2] wb_sel_i[2_bF$buf4] BUFX4
XBUFX4_162 vdd gnd wb_sel_i[2] wb_sel_i[2_bF$buf3] BUFX4
XBUFX4_163 vdd gnd wb_sel_i[2] wb_sel_i[2_bF$buf2] BUFX4
XBUFX4_164 vdd gnd wb_sel_i[2] wb_sel_i[2_bF$buf1] BUFX4
XBUFX4_165 vdd gnd wb_sel_i[2] wb_sel_i[2_bF$buf0] BUFX4
XBUFX4_166 vdd gnd _959_ _959__bF$buf5 BUFX4
XBUFX4_167 vdd gnd _959_ _959__bF$buf4 BUFX4
XBUFX4_168 vdd gnd _959_ _959__bF$buf3 BUFX4
XBUFX4_169 vdd gnd _959_ _959__bF$buf2 BUFX4
XBUFX4_170 vdd gnd _959_ _959__bF$buf1 BUFX4
XBUFX4_171 vdd gnd _959_ _959__bF$buf0 BUFX4
XBUFX4_172 vdd gnd _2166_ _2166__bF$buf6 BUFX4
XBUFX4_173 vdd gnd _2166_ _2166__bF$buf5 BUFX4
XBUFX4_174 vdd gnd _2166_ _2166__bF$buf4 BUFX4
XBUFX4_175 vdd gnd _2166_ _2166__bF$buf3 BUFX4
XBUFX4_176 vdd gnd _2166_ _2166__bF$buf2 BUFX4
XBUFX4_177 vdd gnd _2166_ _2166__bF$buf1 BUFX4
XBUFX4_178 vdd gnd _2166_ _2166__bF$buf0 BUFX4
XBUFX4_179 vdd gnd _11_ _11__bF$buf4 BUFX4
XBUFX4_180 vdd gnd _11_ _11__bF$buf3 BUFX4
XBUFX4_181 vdd gnd _11_ _11__bF$buf2 BUFX4
XBUFX4_182 vdd gnd _11_ _11__bF$buf1 BUFX4
XBUFX4_183 vdd gnd _11_ _11__bF$buf0 BUFX4
XBUFX4_184 vdd gnd _1722_ _1722__bF$buf4 BUFX4
XBUFX4_185 vdd gnd _1722_ _1722__bF$buf3 BUFX4
XBUFX4_186 vdd gnd _1722_ _1722__bF$buf2 BUFX4
XBUFX4_187 vdd gnd _1722_ _1722__bF$buf1 BUFX4
XBUFX4_188 vdd gnd _1722_ _1722__bF$buf0 BUFX4
XBUFX4_189 vdd gnd _251_ _251__bF$buf4 BUFX4
XBUFX4_190 vdd gnd _251_ _251__bF$buf3 BUFX4
XBUFX4_191 vdd gnd _251_ _251__bF$buf2 BUFX4
XBUFX4_192 vdd gnd _251_ _251__bF$buf1 BUFX4
XBUFX4_193 vdd gnd _251_ _251__bF$buf0 BUFX4
XBUFX4_194 vdd gnd _1698_ _1698__bF$buf4 BUFX4
XBUFX4_195 vdd gnd _1698_ _1698__bF$buf3 BUFX4
XBUFX4_196 vdd gnd _1698_ _1698__bF$buf2 BUFX4
XBUFX4_197 vdd gnd _1698_ _1698__bF$buf1 BUFX4
XBUFX4_198 vdd gnd _1698_ _1698__bF$buf0 BUFX4
XBUFX4_199 vdd gnd _189_ _189__bF$buf3 BUFX4
XBUFX4_200 vdd gnd _189_ _189__bF$buf2 BUFX4
XBUFX4_201 vdd gnd _189_ _189__bF$buf1 BUFX4
XBUFX4_202 vdd gnd _189_ _189__bF$buf0 BUFX4
XBUFX4_203 vdd gnd _953_ _953__bF$buf9 BUFX4
XBUFX4_204 vdd gnd _953_ _953__bF$buf8 BUFX4
XBUFX4_205 vdd gnd _953_ _953__bF$buf7 BUFX4
XBUFX4_206 vdd gnd _953_ _953__bF$buf6 BUFX4
XBUFX4_207 vdd gnd _953_ _953__bF$buf5 BUFX4
XBUFX4_208 vdd gnd _953_ _953__bF$buf4 BUFX4
XBUFX4_209 vdd gnd _953_ _953__bF$buf3 BUFX4
XBUFX4_210 vdd gnd _953_ _953__bF$buf2 BUFX4
XBUFX4_211 vdd gnd _953_ _953__bF$buf1 BUFX4
XBUFX4_212 vdd gnd _953_ _953__bF$buf0 BUFX4
XBUFX4_213 vdd gnd _1716_ _1716__bF$buf6 BUFX4
XBUFX4_214 vdd gnd _1716_ _1716__bF$buf5 BUFX4
XBUFX4_215 vdd gnd _1716_ _1716__bF$buf4 BUFX4
XBUFX4_216 vdd gnd _1716_ _1716__bF$buf3 BUFX4
XBUFX4_217 vdd gnd _1716_ _1716__bF$buf2 BUFX4
XBUFX4_218 vdd gnd _1716_ _1716__bF$buf1 BUFX4
XBUFX4_219 vdd gnd _1716_ _1716__bF$buf0 BUFX4
XBUFX4_220 vdd gnd _2098_ _2098__bF$buf4 BUFX4
XBUFX4_221 vdd gnd _2098_ _2098__bF$buf3 BUFX4
XBUFX4_222 vdd gnd _2098_ _2098__bF$buf2 BUFX4
XBUFX4_223 vdd gnd _2098_ _2098__bF$buf1 BUFX4
XBUFX4_224 vdd gnd _2098_ _2098__bF$buf0 BUFX4
XBUFX4_225 vdd gnd _242_ _242__bF$buf3 BUFX4
XBUFX4_226 vdd gnd _242_ _242__bF$buf2 BUFX4
XBUFX4_227 vdd gnd _242_ _242__bF$buf1 BUFX4
XBUFX4_228 vdd gnd _242_ _242__bF$buf0 BUFX4
XBUFX4_229 vdd gnd _2095_ _2095__bF$buf5 BUFX4
XBUFX4_230 vdd gnd _2095_ _2095__bF$buf4 BUFX4
XBUFX4_231 vdd gnd _2095_ _2095__bF$buf3 BUFX4
XBUFX4_232 vdd gnd _2095_ _2095__bF$buf2 BUFX4
XBUFX4_233 vdd gnd _2095_ _2095__bF$buf1 BUFX4
XBUFX4_234 vdd gnd _2095_ _2095__bF$buf0 BUFX4
XBUFX4_235 vdd gnd _1686_ _1686__bF$buf4 BUFX4
XBUFX4_236 vdd gnd _1686_ _1686__bF$buf3 BUFX4
XBUFX4_237 vdd gnd _1686_ _1686__bF$buf2 BUFX4
XBUFX4_238 vdd gnd _1686_ _1686__bF$buf1 BUFX4
XBUFX4_239 vdd gnd _1686_ _1686__bF$buf0 BUFX4
XBUFX4_240 vdd gnd _712_ _712__bF$buf4 BUFX4
XBUFX4_241 vdd gnd _712_ _712__bF$buf3 BUFX4
XBUFX4_242 vdd gnd _712_ _712__bF$buf2 BUFX4
XBUFX4_243 vdd gnd _712_ _712__bF$buf1 BUFX4
XBUFX4_244 vdd gnd _712_ _712__bF$buf0 BUFX4
XBUFX4_245 vdd gnd lsb lsb_bF$buf3 BUFX4
XBUFX4_246 vdd gnd lsb lsb_bF$buf2 BUFX4
XBUFX4_247 vdd gnd lsb lsb_bF$buf1 BUFX4
XBUFX4_248 vdd gnd lsb lsb_bF$buf0 BUFX4
XINVX1_1 ss[24] _5_ vdd gnd INVX1
XNAND3X1_1 wb_cyc_i vdd gnd wb_stb_i wb_we_i _6_ NAND3X1
XNOR2X1_1 vdd _6_ gnd _7_ clgen.enable_bF$buf0 NOR2X1
XINVX4_1 vdd gnd _8_ wb_adr_i[2] INVX4
XNAND3X1_2 wb_adr_i[3] vdd gnd wb_adr_i[4] _8_ _9_ NAND3X1
XINVX8_1 vdd gnd _9__bF$buf3 _10_ INVX8
XAND2X2_1 vdd gnd _10__bF$buf4 _7__bF$buf3 _11_ AND2X2
XNAND2X1_1 vdd _12_ gnd wb_dat_i[24] wb_sel_i[3_bF$buf6] NAND2X1
XOAI21X1_1 gnd vdd _5_ wb_sel_i[3_bF$buf5] _13_ _12_ OAI21X1
XNAND3X1_3 _13_ vdd gnd _7__bF$buf6 _10__bF$buf5 _14_ NAND3X1
XOAI21X1_2 gnd vdd _11__bF$buf3 _5_ _2_[24] _14_ OAI21X1
XINVX1_2 ss[25] _15_ vdd gnd INVX1
XNAND2X1_2 vdd _16_ gnd wb_sel_i[3_bF$buf4] wb_dat_i[25] NAND2X1
XOAI21X1_3 gnd vdd _15_ wb_sel_i[3_bF$buf3] _17_ _16_ OAI21X1
XNAND3X1_4 _17_ vdd gnd _7__bF$buf6 _10__bF$buf5 _18_ NAND3X1
XOAI21X1_4 gnd vdd _11__bF$buf3 _15_ _2_[25] _18_ OAI21X1
XINVX1_3 ss[26] _19_ vdd gnd INVX1
XNAND2X1_3 vdd _20_ gnd wb_sel_i[3_bF$buf2] wb_dat_i[26] NAND2X1
XOAI21X1_5 gnd vdd _19_ wb_sel_i[3_bF$buf1] _21_ _20_ OAI21X1
XNAND3X1_5 _21_ vdd gnd _7__bF$buf6 _10__bF$buf4 _22_ NAND3X1
XOAI21X1_6 gnd vdd _11__bF$buf3 _19_ _2_[26] _22_ OAI21X1
XINVX1_4 ss[27] _23_ vdd gnd INVX1
XNAND2X1_4 vdd _24_ gnd wb_sel_i[3_bF$buf0] wb_dat_i[27] NAND2X1
XOAI21X1_7 gnd vdd _23_ wb_sel_i[3_bF$buf6] _25_ _24_ OAI21X1
XNAND3X1_6 _25_ vdd gnd _7__bF$buf6 _10__bF$buf5 _26_ NAND3X1
XOAI21X1_8 gnd vdd _11__bF$buf3 _23_ _2_[27] _26_ OAI21X1
XINVX1_5 ss[28] _27_ vdd gnd INVX1
XNAND2X1_5 vdd _28_ gnd wb_sel_i[3_bF$buf5] wb_dat_i[28] NAND2X1
XOAI21X1_9 gnd vdd _27_ wb_sel_i[3_bF$buf4] _29_ _28_ OAI21X1
XNAND3X1_7 _29_ vdd gnd _7__bF$buf6 _10__bF$buf5 _30_ NAND3X1
XOAI21X1_10 gnd vdd _11__bF$buf3 _27_ _2_[28] _30_ OAI21X1
XINVX1_6 ss[29] _31_ vdd gnd INVX1
XNAND2X1_6 vdd _32_ gnd wb_sel_i[3_bF$buf3] wb_dat_i[29] NAND2X1
XOAI21X1_11 gnd vdd _31_ wb_sel_i[3_bF$buf2] _33_ _32_ OAI21X1
XNAND3X1_8 _33_ vdd gnd _7__bF$buf6 _10__bF$buf5 _34_ NAND3X1
XOAI21X1_12 gnd vdd _11__bF$buf3 _31_ _2_[29] _34_ OAI21X1
XINVX1_7 ss[30] _35_ vdd gnd INVX1
XNAND2X1_7 vdd _36_ gnd wb_sel_i[3_bF$buf1] wb_dat_i[30] NAND2X1
XOAI21X1_13 gnd vdd _35_ wb_sel_i[3_bF$buf0] _37_ _36_ OAI21X1
XNAND3X1_9 _37_ vdd gnd _7__bF$buf6 _10__bF$buf5 _38_ NAND3X1
XOAI21X1_14 gnd vdd _11__bF$buf3 _35_ _2_[30] _38_ OAI21X1
XINVX1_8 ss[31] _39_ vdd gnd INVX1
XNAND2X1_8 vdd _40_ gnd wb_sel_i[3_bF$buf6] wb_dat_i[31] NAND2X1
XOAI21X1_15 gnd vdd _39_ wb_sel_i[3_bF$buf5] _41_ _40_ OAI21X1
XNAND3X1_10 _41_ vdd gnd _7__bF$buf6 _10__bF$buf4 _42_ NAND3X1
XOAI21X1_16 gnd vdd _11__bF$buf1 _39_ _2_[31] _42_ OAI21X1
XINVX1_9 ss[16] _43_ vdd gnd INVX1
XNAND2X1_9 vdd _44_ gnd wb_dat_i[16] wb_sel_i[2_bF$buf6] NAND2X1
XOAI21X1_17 gnd vdd _43_ wb_sel_i[2_bF$buf5] _45_ _44_ OAI21X1
XNAND3X1_11 _45_ vdd gnd _7__bF$buf1 _10__bF$buf1 _46_ NAND3X1
XOAI21X1_18 gnd vdd _11__bF$buf4 _43_ _2_[16] _46_ OAI21X1
XINVX1_10 ss[17] _47_ vdd gnd INVX1
XNAND2X1_10 vdd _48_ gnd wb_sel_i[2_bF$buf4] wb_dat_i[17] NAND2X1
XOAI21X1_19 gnd vdd _47_ wb_sel_i[2_bF$buf3] _49_ _48_ OAI21X1
XNAND3X1_12 _49_ vdd gnd _7__bF$buf4 _10__bF$buf3 _50_ NAND3X1
XOAI21X1_20 gnd vdd _11__bF$buf2 _47_ _2_[17] _50_ OAI21X1
XINVX1_11 ss[18] _51_ vdd gnd INVX1
XNAND2X1_11 vdd _52_ gnd wb_sel_i[2_bF$buf2] wb_dat_i[18] NAND2X1
XOAI21X1_21 gnd vdd _51_ wb_sel_i[2_bF$buf1] _53_ _52_ OAI21X1
XNAND3X1_13 _53_ vdd gnd _7__bF$buf1 _10__bF$buf1 _54_ NAND3X1
XOAI21X1_22 gnd vdd _11__bF$buf4 _51_ _2_[18] _54_ OAI21X1
XINVX1_12 ss[19] _55_ vdd gnd INVX1
XNAND2X1_12 vdd _56_ gnd wb_sel_i[2_bF$buf0] wb_dat_i[19] NAND2X1
XOAI21X1_23 gnd vdd _55_ wb_sel_i[2_bF$buf6] _57_ _56_ OAI21X1
XNAND3X1_14 _57_ vdd gnd _7__bF$buf1 _10__bF$buf1 _58_ NAND3X1
XOAI21X1_24 gnd vdd _11__bF$buf4 _55_ _2_[19] _58_ OAI21X1
XINVX1_13 ss[20] _59_ vdd gnd INVX1
XNAND2X1_13 vdd _60_ gnd wb_sel_i[2_bF$buf5] wb_dat_i[20] NAND2X1
XOAI21X1_25 gnd vdd _59_ wb_sel_i[2_bF$buf4] _61_ _60_ OAI21X1
XNAND3X1_15 _61_ vdd gnd _7__bF$buf1 _10__bF$buf1 _62_ NAND3X1
XOAI21X1_26 gnd vdd _11__bF$buf4 _59_ _2_[20] _62_ OAI21X1
XINVX1_14 ss[21] _63_ vdd gnd INVX1
XNAND2X1_14 vdd _64_ gnd wb_sel_i[2_bF$buf3] wb_dat_i[21] NAND2X1
XOAI21X1_27 gnd vdd _63_ wb_sel_i[2_bF$buf2] _65_ _64_ OAI21X1
XNAND3X1_16 _65_ vdd gnd _7__bF$buf1 _10__bF$buf1 _66_ NAND3X1
XOAI21X1_28 gnd vdd _11__bF$buf4 _63_ _2_[21] _66_ OAI21X1
XINVX1_15 ss[22] _67_ vdd gnd INVX1
XNAND2X1_15 vdd _68_ gnd wb_sel_i[2_bF$buf1] wb_dat_i[22] NAND2X1
XOAI21X1_29 gnd vdd _67_ wb_sel_i[2_bF$buf0] _69_ _68_ OAI21X1
XNAND3X1_17 _69_ vdd gnd _7__bF$buf1 _10__bF$buf1 _70_ NAND3X1
XOAI21X1_30 gnd vdd _11__bF$buf4 _67_ _2_[22] _70_ OAI21X1
XINVX1_16 ss[23] _71_ vdd gnd INVX1
XNAND2X1_16 vdd _72_ gnd wb_sel_i[2_bF$buf6] wb_dat_i[23] NAND2X1
XOAI21X1_31 gnd vdd _71_ wb_sel_i[2_bF$buf5] _73_ _72_ OAI21X1
XNAND3X1_18 _73_ vdd gnd _7__bF$buf1 _10__bF$buf3 _74_ NAND3X1
XOAI21X1_32 gnd vdd _11__bF$buf4 _71_ _2_[23] _74_ OAI21X1
XINVX2_1 vdd gnd _75_ ss[8] INVX2
XNAND2X1_17 vdd _76_ gnd wb_dat_i[8] wb_sel_i[1_bF$buf7] NAND2X1
XOAI21X1_33 gnd vdd _75_ wb_sel_i[1_bF$buf6] _77_ _76_ OAI21X1
XNAND3X1_19 _77_ vdd gnd _7__bF$buf2 _10__bF$buf0 _78_ NAND3X1
XOAI21X1_34 gnd vdd _11__bF$buf0 _75_ _2_[8] _78_ OAI21X1
XINVX2_2 vdd gnd _79_ ss[9] INVX2
XNAND2X1_18 vdd _80_ gnd wb_sel_i[1_bF$buf5] wb_dat_i[9] NAND2X1
XOAI21X1_35 gnd vdd _79_ wb_sel_i[1_bF$buf4] _81_ _80_ OAI21X1
XNAND3X1_20 _81_ vdd gnd _7__bF$buf0 _10__bF$buf4 _82_ NAND3X1
XOAI21X1_36 gnd vdd _11__bF$buf1 _79_ _2_[9] _82_ OAI21X1
XINVX2_3 vdd gnd _83_ ss[10] INVX2
XNAND2X1_19 vdd _84_ gnd wb_sel_i[1_bF$buf3] wb_dat_i[10] NAND2X1
XOAI21X1_37 gnd vdd _83_ wb_sel_i[1_bF$buf2] _85_ _84_ OAI21X1
XNAND3X1_21 _85_ vdd gnd _7__bF$buf3 _10__bF$buf4 _86_ NAND3X1
XOAI21X1_38 gnd vdd _11__bF$buf1 _83_ _2_[10] _86_ OAI21X1
XINVX2_4 vdd gnd _87_ ss[11] INVX2
XNAND2X1_20 vdd _88_ gnd wb_sel_i[1_bF$buf1] wb_dat_i[11] NAND2X1
XOAI21X1_39 gnd vdd _87_ wb_sel_i[1_bF$buf0] _89_ _88_ OAI21X1
XNAND3X1_22 _89_ vdd gnd _7__bF$buf0 _10__bF$buf4 _90_ NAND3X1
XOAI21X1_40 gnd vdd _11__bF$buf1 _87_ _2_[11] _90_ OAI21X1
XINVX2_5 vdd gnd _91_ ss[12] INVX2
XNAND2X1_21 vdd _92_ gnd wb_sel_i[1_bF$buf7] wb_dat_i[12] NAND2X1
XOAI21X1_41 gnd vdd _91_ wb_sel_i[1_bF$buf6] _93_ _92_ OAI21X1
XNAND3X1_23 _93_ vdd gnd _7__bF$buf0 _10__bF$buf0 _94_ NAND3X1
XOAI21X1_42 gnd vdd _11__bF$buf0 _91_ _2_[12] _94_ OAI21X1
XINVX2_6 vdd gnd _95_ ss[13] INVX2
XNAND2X1_22 vdd _96_ gnd wb_sel_i[1_bF$buf5] wb_dat_i[13] NAND2X1
XOAI21X1_43 gnd vdd _95_ wb_sel_i[1_bF$buf4] _97_ _96_ OAI21X1
XNAND3X1_24 _97_ vdd gnd _7__bF$buf0 _10__bF$buf0 _98_ NAND3X1
XOAI21X1_44 gnd vdd _11__bF$buf1 _95_ _2_[13] _98_ OAI21X1
XINVX2_7 vdd gnd _99_ ss[14] INVX2
XNAND2X1_23 vdd _100_ gnd wb_sel_i[1_bF$buf3] wb_dat_i[14] NAND2X1
XOAI21X1_45 gnd vdd _99_ wb_sel_i[1_bF$buf2] _101_ _100_ OAI21X1
XNAND3X1_25 _101_ vdd gnd _7__bF$buf2 _10__bF$buf0 _102_ NAND3X1
XOAI21X1_46 gnd vdd _11__bF$buf0 _99_ _2_[14] _102_ OAI21X1
XINVX2_8 vdd gnd _103_ ss[15] INVX2
XNAND2X1_24 vdd _104_ gnd wb_sel_i[1_bF$buf1] wb_dat_i[15] NAND2X1
XOAI21X1_47 gnd vdd _103_ wb_sel_i[1_bF$buf0] _105_ _104_ OAI21X1
XNAND3X1_26 _105_ vdd gnd _7__bF$buf3 _10__bF$buf4 _106_ NAND3X1
XOAI21X1_48 gnd vdd _11__bF$buf1 _103_ _2_[15] _106_ OAI21X1
XINVX2_9 vdd gnd _107_ ss[0] INVX2
XNAND2X1_25 vdd _108_ gnd wb_dat_i[0] wb_sel_i[0_bF$buf7] NAND2X1
XOAI21X1_49 gnd vdd _107_ wb_sel_i[0_bF$buf6] _109_ _108_ OAI21X1
XNAND3X1_27 _109_ vdd gnd _7__bF$buf4 _10__bF$buf3 _110_ NAND3X1
XOAI21X1_50 gnd vdd _11__bF$buf2 _107_ _2_[0] _110_ OAI21X1
XINVX2_10 vdd gnd _111_ ss[1] INVX2
XNAND2X1_26 vdd _112_ gnd wb_sel_i[0_bF$buf5] wb_dat_i[1] NAND2X1
XOAI21X1_51 gnd vdd _111_ wb_sel_i[0_bF$buf4] _113_ _112_ OAI21X1
XNAND3X1_28 _113_ vdd gnd _7__bF$buf4 _10__bF$buf3 _114_ NAND3X1
XOAI21X1_52 gnd vdd _11__bF$buf2 _111_ _2_[1] _114_ OAI21X1
XINVX2_11 vdd gnd _115_ ss[2] INVX2
XNAND2X1_27 vdd _116_ gnd wb_sel_i[0_bF$buf3] wb_dat_i[2] NAND2X1
XOAI21X1_53 gnd vdd _115_ wb_sel_i[0_bF$buf2] _117_ _116_ OAI21X1
XNAND3X1_29 _117_ vdd gnd _7__bF$buf5 _10__bF$buf3 _118_ NAND3X1
XOAI21X1_54 gnd vdd _11__bF$buf2 _115_ _2_[2] _118_ OAI21X1
XINVX2_12 vdd gnd _119_ ss[3] INVX2
XNAND2X1_28 vdd _120_ gnd wb_sel_i[0_bF$buf1] wb_dat_i[3] NAND2X1
XOAI21X1_55 gnd vdd _119_ wb_sel_i[0_bF$buf0] _121_ _120_ OAI21X1
XNAND3X1_30 _121_ vdd gnd _7__bF$buf7 _10__bF$buf0 _122_ NAND3X1
XOAI21X1_56 gnd vdd _11__bF$buf0 _119_ _2_[3] _122_ OAI21X1
XINVX2_13 vdd gnd _123_ ss[4] INVX2
XNAND2X1_29 vdd _124_ gnd wb_sel_i[0_bF$buf7] wb_dat_i[4] NAND2X1
XOAI21X1_57 gnd vdd _123_ wb_sel_i[0_bF$buf6] _125_ _124_ OAI21X1
XNAND3X1_31 _125_ vdd gnd _7__bF$buf7 _10__bF$buf0 _126_ NAND3X1
XOAI21X1_58 gnd vdd _11__bF$buf0 _123_ _2_[4] _126_ OAI21X1
XINVX2_14 vdd gnd _127_ ss[5] INVX2
XNAND2X1_30 vdd _128_ gnd wb_sel_i[0_bF$buf5] wb_dat_i[5] NAND2X1
XOAI21X1_59 gnd vdd _127_ wb_sel_i[0_bF$buf4] _129_ _128_ OAI21X1
XNAND3X1_32 _129_ vdd gnd _7__bF$buf4 _10__bF$buf3 _130_ NAND3X1
XOAI21X1_60 gnd vdd _11__bF$buf2 _127_ _2_[5] _130_ OAI21X1
XINVX2_15 vdd gnd _131_ ss[6] INVX2
XNAND2X1_31 vdd _132_ gnd wb_sel_i[0_bF$buf3] wb_dat_i[6] NAND2X1
XOAI21X1_61 gnd vdd _131_ wb_sel_i[0_bF$buf2] _133_ _132_ OAI21X1
XNAND3X1_33 _133_ vdd gnd _7__bF$buf5 _10__bF$buf3 _134_ NAND3X1
XOAI21X1_62 gnd vdd _11__bF$buf2 _131_ _2_[6] _134_ OAI21X1
XINVX2_16 vdd gnd _135_ ss[7] INVX2
XNAND2X1_32 vdd _136_ gnd wb_sel_i[0_bF$buf1] wb_dat_i[7] NAND2X1
XOAI21X1_63 gnd vdd _135_ wb_sel_i[0_bF$buf0] _137_ _136_ OAI21X1
XNAND3X1_34 _137_ vdd gnd _7__bF$buf7 _10__bF$buf0 _138_ NAND3X1
XOAI21X1_64 gnd vdd _11__bF$buf0 _135_ _2_[7] _138_ OAI21X1
XINVX1_17 rx_negedge_bF$buf3 _139_ vdd gnd INVX1
XINVX2_17 vdd gnd _140_ wb_adr_i[3] INVX2
XNAND3X1_35 _8_ vdd gnd wb_adr_i[4] _140_ _141_ NAND3X1
XINVX8_2 vdd gnd _141_ _142_ INVX8
XAND2X2_2 vdd gnd _142_ _7__bF$buf7 _143_ AND2X2
XOAI21X1_65 gnd vdd _139_ wb_sel_i[1_bF$buf7] _144_ _80_ OAI21X1
XNAND3X1_36 _7__bF$buf2 vdd gnd _144_ _142_ _145_ NAND3X1
XOAI21X1_66 gnd vdd _143_ _139_ _0_[9] _145_ OAI21X1
XINVX1_18 shift.tx_negedge _146_ vdd gnd INVX1
XOAI21X1_67 gnd vdd _146_ wb_sel_i[1_bF$buf6] _147_ _84_ OAI21X1
XNAND3X1_37 _7__bF$buf2 vdd gnd _147_ _142_ _148_ NAND3X1
XOAI21X1_68 gnd vdd _143_ _146_ _0_[10] _148_ OAI21X1
XINVX2_18 vdd gnd _149_ lsb_bF$buf2 INVX2
XOAI21X1_69 gnd vdd _149_ wb_sel_i[1_bF$buf5] _150_ _88_ OAI21X1
XNAND3X1_38 _7__bF$buf2 vdd gnd _150_ _142_ _151_ NAND3X1
XOAI21X1_70 gnd vdd _143_ _149_ _0_[11] _151_ OAI21X1
XINVX1_19 ie _152_ vdd gnd INVX1
XOAI21X1_71 gnd vdd _152_ wb_sel_i[1_bF$buf4] _153_ _92_ OAI21X1
XNAND3X1_39 _7__bF$buf2 vdd gnd _153_ _142_ _154_ NAND3X1
XOAI21X1_72 gnd vdd _143_ _152_ _0_[12] _154_ OAI21X1
XINVX8_3 vdd gnd ass _155_ INVX8
XOAI21X1_73 gnd vdd _155__bF$buf4 wb_sel_i[1_bF$buf3] _156_ _96_ OAI21X1
XNAND3X1_40 _7__bF$buf2 vdd gnd _156_ _142_ _157_ NAND3X1
XOAI21X1_74 gnd vdd _143_ _155__bF$buf4 _0_[13] _157_ OAI21X1
XINVX1_20 clgen.go _158_ vdd gnd INVX1
XOAI21X1_75 gnd vdd _158_ wb_sel_i[1_bF$buf2] _159_ _76_ OAI21X1
XNAND3X1_41 _7__bF$buf5 vdd gnd _159_ _142_ _160_ NAND3X1
XINVX1_21 clgen.pos_edge _161_ vdd gnd INVX1
XNAND2X1_33 vdd _162_ gnd clgen.enable_bF$buf1 clgen.last_clk NAND2X1
XOAI21X1_76 gnd vdd _162_ _161_ _163_ clgen.go OAI21X1
XOAI21X1_77 gnd vdd _143_ _163_ _0_[8] _160_ OAI21X1
XINVX1_22 char_len[0] _164_ vdd gnd INVX1
XOAI21X1_78 gnd vdd _164_ wb_sel_i[0_bF$buf7] _165_ _108_ OAI21X1
XNAND3X1_42 _7__bF$buf5 vdd gnd _165_ _142_ _166_ NAND3X1
XOAI21X1_79 gnd vdd _143_ _164_ _0_[0] _166_ OAI21X1
XINVX1_23 char_len[1] _167_ vdd gnd INVX1
XOAI21X1_80 gnd vdd _167_ wb_sel_i[0_bF$buf6] _168_ _112_ OAI21X1
XNAND3X1_43 _7__bF$buf5 vdd gnd _168_ _142_ _169_ NAND3X1
XOAI21X1_81 gnd vdd _143_ _167_ _0_[1] _169_ OAI21X1
XINVX1_24 char_len[2] _170_ vdd gnd INVX1
XOAI21X1_82 gnd vdd _170_ wb_sel_i[0_bF$buf5] _171_ _116_ OAI21X1
XNAND3X1_44 _7__bF$buf4 vdd gnd _171_ _142_ _172_ NAND3X1
XOAI21X1_83 gnd vdd _143_ _170_ _0_[2] _172_ OAI21X1
XINVX2_19 vdd gnd _173_ char_len[3] INVX2
XOAI21X1_84 gnd vdd _173_ wb_sel_i[0_bF$buf4] _174_ _120_ OAI21X1
XNAND3X1_45 _7__bF$buf4 vdd gnd _174_ _142_ _175_ NAND3X1
XOAI21X1_85 gnd vdd _143_ _173_ _0_[3] _175_ OAI21X1
XINVX2_20 vdd gnd _176_ char_len[4] INVX2
XOAI21X1_86 gnd vdd _176_ wb_sel_i[0_bF$buf3] _177_ _124_ OAI21X1
XNAND3X1_46 _7__bF$buf4 vdd gnd _177_ _142_ _178_ NAND3X1
XOAI21X1_87 gnd vdd _143_ _176_ _0_[4] _178_ OAI21X1