* NGSPICE file created from spi_top.ext - technology: scmos

* Black-box entry subcircuit for FILL abstract view
.subckt FILL gnd vdd
.ends

* Black-box entry subcircuit for OAI21X1 abstract view
.subckt OAI21X1 A B C gnd Y vdd
.ends

* Black-box entry subcircuit for AND2X2 abstract view
.subckt AND2X2 A B gnd Y vdd
.ends

* Black-box entry subcircuit for DFFSR abstract view
.subckt DFFSR Q CLK R S D gnd vdd
.ends

* Black-box entry subcircuit for NAND2X1 abstract view
.subckt NAND2X1 A B gnd Y vdd
.ends

* Black-box entry subcircuit for AOI21X1 abstract view
.subckt AOI21X1 A B C gnd Y vdd
.ends

* Black-box entry subcircuit for AOI22X1 abstract view
.subckt AOI22X1 A B C D gnd Y vdd
.ends

* Black-box entry subcircuit for NAND3X1 abstract view
.subckt NAND3X1 A B C gnd Y vdd
.ends

* Black-box entry subcircuit for OAI22X1 abstract view
.subckt OAI22X1 A B C D gnd Y vdd
.ends

* Black-box entry subcircuit for INVX2 abstract view
.subckt INVX2 A gnd Y vdd
.ends

* Black-box entry subcircuit for BUFX4 abstract view
.subckt BUFX4 A gnd Y vdd
.ends

* Black-box entry subcircuit for NOR2X1 abstract view
.subckt NOR2X1 A B gnd Y vdd
.ends

* Black-box entry subcircuit for OR2X2 abstract view
.subckt OR2X2 A B gnd Y vdd
.ends

* Black-box entry subcircuit for XNOR2X1 abstract view
.subckt XNOR2X1 A B gnd Y vdd
.ends

* Black-box entry subcircuit for INVX8 abstract view
.subckt INVX8 A gnd Y vdd
.ends

* Black-box entry subcircuit for INVX1 abstract view
.subckt INVX1 A gnd Y vdd
.ends

* Black-box entry subcircuit for NOR3X1 abstract view
.subckt NOR3X1 A B C gnd Y vdd
.ends

* Black-box entry subcircuit for CLKBUF1 abstract view
.subckt CLKBUF1 A gnd Y vdd
.ends

* Black-box entry subcircuit for MUX2X1 abstract view
.subckt MUX2X1 A B S gnd Y vdd
.ends

* Black-box entry subcircuit for XOR2X1 abstract view
.subckt XOR2X1 A B gnd Y vdd
.ends

* Black-box entry subcircuit for INVX4 abstract view
.subckt INVX4 A gnd Y vdd
.ends

* Black-box entry subcircuit for BUFX2 abstract view
.subckt BUFX2 A gnd Y vdd
.ends

.subckt spi_top vdd gnd wb_clk_i wb_rst_i wb_adr_i[0] wb_adr_i[1] wb_adr_i[2] wb_adr_i[3]
+ wb_adr_i[4] wb_dat_i[0] wb_dat_i[1] wb_dat_i[2] wb_dat_i[3] wb_dat_i[4] wb_dat_i[5]
+ wb_dat_i[6] wb_dat_i[7] wb_dat_i[8] wb_dat_i[9] wb_dat_i[10] wb_dat_i[11] wb_dat_i[12]
+ wb_dat_i[13] wb_dat_i[14] wb_dat_i[15] wb_dat_i[16] wb_dat_i[17] wb_dat_i[18] wb_dat_i[19]
+ wb_dat_i[20] wb_dat_i[21] wb_dat_i[22] wb_dat_i[23] wb_dat_i[24] wb_dat_i[25] wb_dat_i[26]
+ wb_dat_i[27] wb_dat_i[28] wb_dat_i[29] wb_dat_i[30] wb_dat_i[31] wb_sel_i[0] wb_sel_i[1]
+ wb_sel_i[2] wb_sel_i[3] wb_we_i wb_stb_i wb_cyc_i miso_pad_i wb_dat_o[0] wb_dat_o[1]
+ wb_dat_o[2] wb_dat_o[3] wb_dat_o[4] wb_dat_o[5] wb_dat_o[6] wb_dat_o[7] wb_dat_o[8]
+ wb_dat_o[9] wb_dat_o[10] wb_dat_o[11] wb_dat_o[12] wb_dat_o[13] wb_dat_o[14] wb_dat_o[15]
+ wb_dat_o[16] wb_dat_o[17] wb_dat_o[18] wb_dat_o[19] wb_dat_o[20] wb_dat_o[21] wb_dat_o[22]
+ wb_dat_o[23] wb_dat_o[24] wb_dat_o[25] wb_dat_o[26] wb_dat_o[27] wb_dat_o[28] wb_dat_o[29]
+ wb_dat_o[30] wb_dat_o[31] wb_ack_o wb_err_o wb_int_o ss_pad_o[0] ss_pad_o[1] ss_pad_o[2]
+ ss_pad_o[3] ss_pad_o[4] ss_pad_o[5] ss_pad_o[6] ss_pad_o[7] ss_pad_o[8] ss_pad_o[9]
+ ss_pad_o[10] ss_pad_o[11] ss_pad_o[12] ss_pad_o[13] ss_pad_o[14] ss_pad_o[15] ss_pad_o[16]
+ ss_pad_o[17] ss_pad_o[18] ss_pad_o[19] ss_pad_o[20] ss_pad_o[21] ss_pad_o[22] ss_pad_o[23]
+ ss_pad_o[24] ss_pad_o[25] ss_pad_o[26] ss_pad_o[27] ss_pad_o[28] ss_pad_o[29] ss_pad_o[30]
+ ss_pad_o[31] sclk_pad_o mosi_pad_o
XFILL_9_6_0 gnd vdd FILL
XFILL_17_5_0 gnd vdd FILL
XOAI21X1_360 OAI21X1_360/A OAI21X1_359/Y OAI21X1_356/Y gnd DFFSR_234/D vdd OAI21X1
XOAI21X1_371 NOR2X1_215/Y INVX2_77/Y BUFX4_51/Y gnd AOI21X1_119/C vdd OAI21X1
XAND2X2_5 AND2X2_5/A AND2X2_5/B gnd AND2X2_5/Y vdd AND2X2
XOAI21X1_382 BUFX4_67/Y NAND2X1_230/Y AOI21X1_124/Y gnd AOI21X1_126/B vdd OAI21X1
XOAI21X1_393 OAI21X1_393/A OAI21X1_392/Y OAI21X1_389/Y gnd DFFSR_224/D vdd OAI21X1
XFILL_32_3_0 gnd vdd FILL
XFILL_23_3_0 gnd vdd FILL
XFILL_6_4_0 gnd vdd FILL
XFILL_14_3_0 gnd vdd FILL
XOAI21X1_190 INVX2_18/A NAND2X1_104/Y OAI21X1_190/C gnd INVX2_47/A vdd OAI21X1
XDFFSR_9 INVX2_1/A DFFSR_9/CLK DFFSR_9/R vdd DFFSR_9/D gnd vdd DFFSR
XNAND2X1_10 BUFX4_161/Y wb_dat_i[17] gnd OAI21X1_19/C vdd NAND2X1
XNAND2X1_43 AOI21X1_5/Y NOR2X1_8/Y gnd DFFSR_69/D vdd NAND2X1
XNAND2X1_32 BUFX4_85/Y wb_dat_i[7] gnd OAI21X1_92/C vdd NAND2X1
XNAND2X1_21 BUFX4_5/Y wb_dat_i[12] gnd OAI21X1_71/C vdd NAND2X1
XNAND2X1_65 DFFSR_137/Q AOI21X1_1/B gnd NAND3X1_91/B vdd NAND2X1
XNAND2X1_54 AOI21X1_12/Y NOR2X1_15/Y gnd DFFSR_76/D vdd NAND2X1
XNAND2X1_87 OR2X2_2/B BUFX4_1/Y gnd NAND2X1_87/Y vdd NAND2X1
XNAND2X1_76 wb_stb_i wb_cyc_i gnd NOR2X1_18/B vdd NAND2X1
XNAND2X1_98 AND2X2_8/B AND2X2_8/A gnd OR2X2_5/A vdd NAND2X1
XAOI21X1_269 AOI22X1_85/D AOI22X1_85/C NOR2X1_350/Y gnd DFFSR_245/D vdd AOI21X1
XAOI21X1_203 AOI21X1_202/Y AOI21X1_203/B NOR2X1_275/Y gnd DFFSR_169/D vdd AOI21X1
XAOI21X1_236 AOI21X1_235/Y OAI21X1_636/Y NOR2X1_291/Y gnd DFFSR_152/D vdd AOI21X1
XAOI22X1_41 AOI22X1_41/A NOR2X1_189/Y INVX2_164/A AOI22X1_41/D gnd AOI21X1_67/A vdd
+ AOI22X1
XAOI22X1_30 BUFX4_21/Y INVX1_7/A INVX2_65/A INVX8_6/Y gnd AOI22X1_30/Y vdd AOI22X1
XAOI21X1_247 INVX1_97/A INVX1_156/Y BUFX4_212/Y gnd AOI22X1_82/D vdd AOI21X1
XAOI21X1_225 AOI21X1_225/A OAI21X1_622/Y NOR2X1_286/Y gnd DFFSR_158/D vdd AOI21X1
XAOI21X1_258 INVX2_123/Y AOI21X1_258/B BUFX4_34/Y gnd OAI21X1_769/C vdd AOI21X1
XAOI21X1_214 BUFX4_34/Y AOI21X1_214/B BUFX4_210/Y gnd AOI21X1_215/A vdd AOI21X1
XAOI22X1_85 AOI22X1_85/A AND2X2_33/Y AOI22X1_85/C AOI22X1_85/D gnd AOI22X1_85/Y vdd
+ AOI22X1
XAOI22X1_52 AOI22X1_52/A AOI21X1_79/Y AOI21X1_80/Y AOI22X1_52/D gnd AOI22X1_52/Y vdd
+ AOI22X1
XAOI22X1_74 INVX2_68/A INVX4_9/A INVX4_8/A INVX2_72/A gnd AOI22X1_74/Y vdd AOI22X1
XAOI22X1_63 DFFSR_239/Q INVX8_14/A INVX4_8/A INVX1_53/A gnd AOI22X1_63/Y vdd AOI22X1
XNAND3X1_207 OAI21X1_310/Y NAND3X1_207/B AOI22X1_66/Y gnd AOI22X1_68/A vdd NAND3X1
XOAI22X1_3 BUFX4_78/Y INVX2_10/Y INVX1_28/Y OAI22X1_1/D gnd NOR2X1_5/A vdd OAI22X1
XFILL_30_6_1 gnd vdd FILL
XDFFSR_216 INVX1_37/A DFFSR_36/CLK DFFSR_198/R vdd DFFSR_216/D gnd vdd DFFSR
XDFFSR_205 DFFSR_205/Q CLKBUF1_33/Y DFFSR_194/R vdd DFFSR_205/D gnd vdd DFFSR
XDFFSR_249 INVX2_48/A CLKBUF1_37/Y DFFSR_165/R vdd DFFSR_249/D gnd vdd DFFSR
XDFFSR_238 INVX2_67/A CLKBUF1_24/Y DFFSR_194/R vdd DFFSR_238/D gnd vdd DFFSR
XDFFSR_227 INVX1_62/A DFFSR_92/CLK DFFSR_236/R vdd DFFSR_227/D gnd vdd DFFSR
XFILL_21_6_1 gnd vdd FILL
XFILL_20_1_0 gnd vdd FILL
XINVX2_45 INVX2_45/A gnd INVX2_45/Y vdd INVX2
XINVX2_78 INVX2_78/A gnd INVX2_78/Y vdd INVX2
XINVX2_56 INVX2_56/A gnd INVX2_56/Y vdd INVX2
XINVX2_12 DFFSR_4/Q gnd INVX2_12/Y vdd INVX2
XINVX2_34 OR2X2_2/A gnd INVX2_34/Y vdd INVX2
XINVX2_23 DFFSR_55/Q gnd INVX2_23/Y vdd INVX2
XINVX2_67 INVX2_67/A gnd INVX2_67/Y vdd INVX2
XFILL_28_2_0 gnd vdd FILL
XINVX2_89 INVX2_89/A gnd INVX2_89/Y vdd INVX2
XFILL_3_2_0 gnd vdd FILL
XOAI21X1_19 INVX1_10/Y BUFX4_162/Y OAI21X1_19/C gnd NAND3X1_12/B vdd OAI21X1
XFILL_11_1_0 gnd vdd FILL
XFILL_12_6_1 gnd vdd FILL
XFILL_19_2_0 gnd vdd FILL
XNAND2X1_239 wb_dat_i[6] BUFX4_79/Y gnd NAND2X1_239/Y vdd NAND2X1
XNAND2X1_228 INVX8_14/A INVX1_129/Y gnd AOI21X1_121/B vdd NAND2X1
XNAND2X1_217 INVX1_126/Y NOR2X1_190/Y gnd INVX1_127/A vdd NAND2X1
XNAND2X1_206 BUFX4_71/Y wb_dat_i[27] gnd OAI21X1_567/C vdd NAND2X1
XBUFX4_190 BUFX4_193/A gnd BUFX4_190/Y vdd BUFX4
XNOR2X1_294 OR2X2_17/B NOR2X1_310/B gnd NOR2X1_294/Y vdd NOR2X1
XNOR2X1_250 INVX4_7/Y INVX1_136/Y gnd NOR2X1_250/Y vdd NOR2X1
XOAI21X1_712 BUFX4_60/Y OAI21X1_712/B OAI21X1_711/Y gnd OAI21X1_714/A vdd OAI21X1
XNOR2X1_261 INVX4_8/Y OR2X2_15/A gnd NOR2X1_261/Y vdd NOR2X1
XOAI21X1_723 INVX1_151/A OR2X2_18/B INVX2_117/Y gnd OAI21X1_724/C vdd OAI21X1
XOAI21X1_701 BUFX4_64/Y OR2X2_18/Y OAI21X1_700/Y gnd OAI21X1_702/A vdd OAI21X1
XNOR2X1_272 INVX4_9/Y NOR2X1_287/B gnd NOR2X1_272/Y vdd NOR2X1
XNOR2X1_283 INVX2_61/A BUFX4_118/Y gnd NOR2X1_283/Y vdd NOR2X1
XOAI21X1_734 NOR2X1_324/Y OAI21X1_733/Y NAND2X1_326/Y gnd DFFSR_116/D vdd OAI21X1
XOAI21X1_767 AOI21X1_256/Y OAI21X1_766/Y OAI21X1_763/Y gnd DFFSR_187/D vdd OAI21X1
XOAI21X1_789 BUFX4_60/Y OAI21X1_789/B OAI21X1_788/Y gnd OAI21X1_790/A vdd OAI21X1
XOAI21X1_778 BUFX4_59/Y OR2X2_21/Y OAI21X1_778/C gnd AOI21X1_267/B vdd OAI21X1
XOAI21X1_745 AOI21X1_250/Y OAI21X1_744/Y OAI21X1_741/Y gnd DFFSR_227/D vdd OAI21X1
XOAI21X1_756 NOR2X1_329/Y INVX2_124/Y BUFX4_167/Y gnd AOI21X1_253/C vdd OAI21X1
XBUFX4_85 wb_sel_i[0] gnd BUFX4_85/Y vdd BUFX4
XBUFX4_52 BUFX4_52/A gnd BUFX4_52/Y vdd BUFX4
XBUFX4_74 wb_sel_i[3] gnd MUX2X1_6/S vdd BUFX4
XBUFX4_41 BUFX4_45/A gnd BUFX4_41/Y vdd BUFX4
XBUFX4_63 BUFX4_61/A gnd BUFX4_63/Y vdd BUFX4
XBUFX4_96 BUFX4_98/A gnd BUFX4_96/Y vdd BUFX4
XBUFX4_30 BUFX4_32/A gnd BUFX4_30/Y vdd BUFX4
XFILL_35_5_1 gnd vdd FILL
XFILL_34_0_0 gnd vdd FILL
XOR2X2_11 OR2X2_11/A INVX2_49/Y gnd OR2X2_11/Y vdd OR2X2
XOR2X2_4 OR2X2_4/A OR2X2_4/B gnd OR2X2_4/Y vdd OR2X2
XXNOR2X1_6 XOR2X1_2/A XOR2X1_2/B gnd XNOR2X1_6/Y vdd XNOR2X1
XFILL_26_5_1 gnd vdd FILL
XFILL_25_0_0 gnd vdd FILL
XFILL_1_5_1 gnd vdd FILL
XFILL_0_0_0 gnd vdd FILL
XOAI21X1_553 BUFX4_211/Y BUFX4_28/Y DFFSR_180/Q gnd OAI21X1_553/Y vdd OAI21X1
XOAI21X1_542 AOI21X1_185/Y OAI21X1_541/Y OAI21X1_542/C gnd DFFSR_183/D vdd OAI21X1
XOAI21X1_531 BUFX4_169/Y OAI21X1_531/B BUFX4_37/Y gnd OAI21X1_532/B vdd OAI21X1
XINVX8_22 INVX8_22/A gnd INVX8_22/Y vdd INVX8
XINVX1_6 INVX1_6/A gnd INVX1_6/Y vdd INVX1
XOAI21X1_564 BUFX4_63/Y NAND2X1_259/Y OAI21X1_564/C gnd AOI21X1_195/B vdd OAI21X1
XINVX8_11 INVX8_11/A gnd INVX8_11/Y vdd INVX8
XOAI21X1_520 INVX2_98/Y BUFX4_7/Y NAND2X1_238/Y gnd OAI21X1_521/B vdd OAI21X1
XOAI21X1_575 BUFX4_99/Y INVX8_11/Y AND2X2_24/A gnd NOR2X1_287/B vdd OAI21X1
XOAI21X1_586 NOR2X1_274/Y INVX2_54/Y BUFX4_121/Y gnd AOI21X1_200/C vdd OAI21X1
XOAI21X1_597 BUFX4_98/Y INVX8_11/Y INVX1_136/A gnd NOR2X1_280/B vdd OAI21X1
XFILL_9_6_1 gnd vdd FILL
XFILL_8_1_0 gnd vdd FILL
XFILL_17_5_1 gnd vdd FILL
XFILL_16_0_0 gnd vdd FILL
XOAI21X1_372 INVX2_77/Y BUFX4_163/Y NAND2X1_224/Y gnd OAI21X1_373/B vdd OAI21X1
XOAI21X1_361 BUFX4_221/Y INVX8_19/A DFFSR_233/Q gnd OAI21X1_365/C vdd OAI21X1
XOAI21X1_350 OAI21X1_350/A OAI21X1_349/Y OAI21X1_350/C gnd DFFSR_237/D vdd OAI21X1
XOAI21X1_394 BUFX4_67/Y NAND2X1_234/Y OAI21X1_394/C gnd AOI21X1_131/B vdd OAI21X1
XOAI21X1_383 INVX2_62/Y BUFX4_12/Y NAND2X1_231/Y gnd OAI21X1_383/Y vdd OAI21X1
XAND2X2_6 AND2X2_6/A AND2X2_6/B gnd AND2X2_6/Y vdd AND2X2
XFILL_32_3_1 gnd vdd FILL
XFILL_23_3_1 gnd vdd FILL
XFILL_6_4_1 gnd vdd FILL
XFILL_14_3_1 gnd vdd FILL
XOAI21X1_191 OR2X2_8/Y INVX2_43/A INVX2_48/A gnd NAND2X1_106/A vdd OAI21X1
XAOI22X1_1 DFFSR_164/Q AOI22X1_1/B INVX8_5/Y DFFSR_196/Q gnd AOI22X1_1/Y vdd AOI22X1
XOAI21X1_180 OAI21X1_179/Y INVX1_77/Y OAI21X1_180/C gnd DFFSR_115/D vdd OAI21X1
XNAND2X1_33 BUFX4_103/Y OR2X2_3/B gnd NAND2X1_33/Y vdd NAND2X1
XNAND2X1_77 INVX1_19/A INVX4_11/A gnd OAI22X1_39/D vdd NAND2X1
XNAND2X1_11 BUFX4_163/Y wb_dat_i[18] gnd OAI21X1_21/C vdd NAND2X1
XNAND2X1_66 INVX2_56/A AOI21X1_1/B gnd NAND3X1_92/A vdd NAND2X1
XNAND2X1_44 AOI21X1_6/Y NOR2X1_9/Y gnd DFFSR_70/D vdd NAND2X1
XNAND2X1_55 NAND3X1_84/Y NAND2X1_55/B gnd AOI21X1_13/C vdd NAND2X1
XNAND2X1_22 BUFX4_7/Y wb_dat_i[13] gnd OAI21X1_73/C vdd NAND2X1
XNAND2X1_88 INVX2_32/A BUFX4_1/Y gnd NAND2X1_88/Y vdd NAND2X1
XNAND2X1_99 INVX1_76/Y AND2X2_8/A gnd OR2X2_6/A vdd NAND2X1
XAOI22X1_42 AOI22X1_42/A AOI21X1_60/Y AOI22X1_42/C INVX1_117/Y gnd AOI22X1_42/Y vdd
+ AOI22X1
XAOI21X1_237 INVX2_115/Y AOI21X1_237/B BUFX4_33/Y gnd OAI21X1_638/C vdd AOI21X1
XAOI21X1_204 INVX2_88/Y NAND2X1_265/Y BUFX4_31/Y gnd OAI21X1_593/C vdd AOI21X1
XAOI22X1_20 BUFX4_21/Y INVX1_2/A INVX2_141/A INVX8_6/Y gnd NAND3X1_95/C vdd AOI22X1
XAOI22X1_31 INVX2_126/A BUFX4_127/Y INVX8_5/Y INVX2_127/A gnd AOI22X1_31/Y vdd AOI22X1
XAOI22X1_75 INVX1_51/A INVX4_10/A INVX8_22/A INVX1_93/A gnd AOI22X1_75/Y vdd AOI22X1
XAOI21X1_248 INVX1_94/A INVX1_157/Y BUFX4_210/Y gnd AOI22X1_83/D vdd AOI21X1
XAOI22X1_64 INVX1_52/A INVX4_10/A INVX8_22/A INVX1_96/A gnd AOI22X1_64/Y vdd AOI22X1
XAOI21X1_259 BUFX4_34/Y AOI21X1_259/B BUFX4_210/Y gnd AOI21X1_259/Y vdd AOI21X1
XAOI21X1_215 AOI21X1_215/A AOI21X1_215/B NOR2X1_283/Y gnd DFFSR_162/D vdd AOI21X1
XAOI22X1_53 AOI22X1_53/A AOI22X1_53/B AOI21X1_82/Y AOI22X1_53/D gnd AOI22X1_53/Y vdd
+ AOI22X1
XAOI21X1_226 NOR2X1_287/Y BUFX4_64/Y AOI21X1_226/C gnd OAI21X1_627/A vdd AOI21X1
XNAND3X1_208 NAND3X1_208/A OAI21X1_313/Y AOI22X1_67/Y gnd AOI22X1_68/D vdd NAND3X1
XOAI22X1_4 OAI22X1_4/A INVX2_32/Y OAI22X1_4/C INVX1_29/Y gnd NOR2X1_5/B vdd OAI22X1
XDFFSR_228 AOI22X1_2/C CLKBUF1_12/Y BUFX4_130/Y vdd DFFSR_228/D gnd vdd DFFSR
XDFFSR_239 DFFSR_239/Q CLKBUF1_32/A DFFSR_236/R vdd DFFSR_239/D gnd vdd DFFSR
XDFFSR_206 INVX2_69/A DFFSR_26/CLK DFFSR_174/R vdd DFFSR_206/D gnd vdd DFFSR
XDFFSR_217 INVX1_40/A CLKBUF1_45/Y DFFSR_167/R vdd DFFSR_217/D gnd vdd DFFSR
XFILL_20_1_1 gnd vdd FILL
XINVX2_46 INVX2_46/A gnd INVX2_46/Y vdd INVX2
XINVX2_13 DFFSR_5/Q gnd INVX2_13/Y vdd INVX2
XINVX2_35 DFFSR_51/Q gnd INVX2_35/Y vdd INVX2
XINVX2_79 INVX2_79/A gnd INVX2_79/Y vdd INVX2
XINVX2_57 INVX1_43/A gnd INVX2_57/Y vdd INVX2
XINVX2_68 INVX2_68/A gnd INVX2_68/Y vdd INVX2
XINVX2_24 INVX2_24/A gnd INVX2_24/Y vdd INVX2
XFILL_28_2_1 gnd vdd FILL
XFILL_3_2_1 gnd vdd FILL
XFILL_11_1_1 gnd vdd FILL
XFILL_19_2_1 gnd vdd FILL
XNAND2X1_229 NAND2X1_9/B wb_dat_i[16] gnd NAND2X1_229/Y vdd NAND2X1
XNAND2X1_218 INVX8_14/A INVX1_127/Y gnd NAND2X1_218/Y vdd NAND2X1
XNAND2X1_207 INVX1_122/A NOR2X1_191/Y gnd NOR2X1_238/B vdd NAND2X1
XBUFX4_191 BUFX4_193/A gnd AOI21X1_2/B vdd BUFX4
XNOR2X1_251 BUFX4_152/Y OR2X2_13/B gnd INVX1_137/A vdd NOR2X1
XNOR2X1_240 DFFSR_205/Q BUFX4_35/Y gnd NOR2X1_240/Y vdd NOR2X1
XBUFX4_180 AND2X2_1/Y gnd BUFX4_180/Y vdd BUFX4
XNOR2X1_295 OR2X2_17/B NOR2X1_282/B gnd NOR2X1_295/Y vdd NOR2X1
XOAI21X1_713 INVX2_60/Y BUFX4_83/Y NAND2X1_239/Y gnd NAND2X1_315/B vdd OAI21X1
XNOR2X1_262 INVX4_8/Y NOR2X1_262/B gnd NOR2X1_262/Y vdd NOR2X1
XOAI21X1_724 BUFX4_96/Y INVX1_132/Y OAI21X1_724/C gnd OAI21X1_725/B vdd OAI21X1
XOAI21X1_702 OAI21X1_702/A BUFX4_208/Y NAND2X1_308/Y gnd DFFSR_128/D vdd OAI21X1
XOAI21X1_735 BUFX4_205/Y BUFX4_29/Y INVX2_127/A gnd OAI21X1_735/Y vdd OAI21X1
XOAI21X1_757 INVX2_124/Y BUFX4_8/Y NAND2X1_328/Y gnd OAI21X1_758/B vdd OAI21X1
XNOR2X1_273 INVX4_9/Y INVX1_140/A gnd NOR2X1_273/Y vdd NOR2X1
XNOR2X1_284 INVX1_57/A BUFX4_118/Y gnd NOR2X1_284/Y vdd NOR2X1
XOAI21X1_746 BUFX4_221/Y BUFX4_233/Y INVX2_128/A gnd OAI21X1_746/Y vdd OAI21X1
XOAI21X1_779 INVX2_132/Y BUFX4_85/Y OAI21X1_787/C gnd AOI21X1_266/B vdd OAI21X1
XOAI21X1_768 BUFX4_96/Y INVX8_18/Y AND2X2_31/A gnd NOR2X1_337/B vdd OAI21X1
XBUFX4_20 BUFX4_19/A gnd BUFX4_20/Y vdd BUFX4
XFILL_34_0_1 gnd vdd FILL
XBUFX4_86 wb_sel_i[0] gnd BUFX4_86/Y vdd BUFX4
XBUFX4_75 BUFX4_78/A gnd INVX8_1/A vdd BUFX4
XBUFX4_42 BUFX4_45/A gnd BUFX4_42/Y vdd BUFX4
XBUFX4_31 BUFX4_32/A gnd BUFX4_31/Y vdd BUFX4
XBUFX4_53 BUFX4_52/A gnd BUFX4_53/Y vdd BUFX4
XBUFX4_97 BUFX4_98/A gnd BUFX4_97/Y vdd BUFX4
XBUFX4_64 BUFX4_61/A gnd BUFX4_64/Y vdd BUFX4
XOR2X2_12 OR2X2_12/A OR2X2_12/B gnd OR2X2_12/Y vdd OR2X2
XOR2X2_5 OR2X2_5/A OR2X2_5/B gnd OR2X2_5/Y vdd OR2X2
XXNOR2X1_7 OR2X2_8/A BUFX4_112/Y gnd OR2X2_10/A vdd XNOR2X1
XFILL_25_0_1 gnd vdd FILL
XINVX8_12 BUFX4_35/Y gnd INVX8_12/Y vdd INVX8
XFILL_0_0_1 gnd vdd FILL
XINVX8_23 INVX8_23/A gnd OR2X2_18/B vdd INVX8
XOAI21X1_587 INVX2_54/Y BUFX4_161/Y OAI21X1_587/C gnd OAI21X1_588/B vdd OAI21X1
XOAI21X1_598 NOR2X1_280/Y INVX2_78/Y BUFX4_122/Y gnd AOI21X1_210/C vdd OAI21X1
XOAI21X1_554 AND2X2_27/Y INVX2_106/Y BUFX4_171/Y gnd OAI21X1_554/Y vdd OAI21X1
XOAI21X1_543 BUFX4_211/Y BUFX4_28/Y INVX2_73/A gnd OAI21X1_543/Y vdd OAI21X1
XOAI21X1_532 OAI21X1_532/A OAI21X1_532/B OAI21X1_528/Y gnd DFFSR_185/D vdd OAI21X1
XOAI21X1_576 NOR2X1_272/Y MUX2X1_1/B BUFX4_123/Y gnd AOI21X1_198/C vdd OAI21X1
XOAI21X1_565 INVX2_82/Y MUX2X1_6/S OAI21X1_333/C gnd AOI21X1_194/B vdd OAI21X1
XINVX1_7 INVX1_7/A gnd INVX1_7/Y vdd INVX1
XOAI21X1_510 BUFX4_57/Y NAND2X1_256/Y OAI21X1_510/C gnd AOI21X1_179/B vdd OAI21X1
XOAI21X1_521 BUFX4_167/Y OAI21X1_521/B BUFX4_38/Y gnd OAI21X1_522/B vdd OAI21X1
XFILL_8_1_1 gnd vdd FILL
XFILL_16_0_1 gnd vdd FILL
XOAI21X1_373 BUFX4_52/Y OAI21X1_373/B BUFX4_244/Y gnd OAI21X1_373/Y vdd OAI21X1
XOAI21X1_362 NOR2X1_212/Y INVX2_162/Y BUFX4_51/Y gnd OAI21X1_362/Y vdd OAI21X1
XAND2X2_7 AND2X2_7/A AND2X2_7/B gnd AND2X2_7/Y vdd AND2X2
XOAI21X1_340 AOI21X1_107/Y OAI21X1_339/Y OAI21X1_336/Y gnd DFFSR_239/D vdd OAI21X1
XOAI21X1_351 BUFX4_223/Y BUFX4_234/Y INVX2_165/A gnd OAI21X1_355/C vdd OAI21X1
XOAI21X1_384 BUFX4_222/Y BUFX4_233/Y INVX1_59/A gnd OAI21X1_384/Y vdd OAI21X1
XOAI21X1_395 INVX2_111/Y BUFX4_10/Y OAI21X1_621/C gnd OAI21X1_395/Y vdd OAI21X1
XAOI22X1_2 BUFX4_26/Y INVX1_9/A AOI22X1_2/C INVX8_6/Y gnd AOI22X1_2/Y vdd AOI22X1
XOAI21X1_192 INVX2_43/A INVX4_2/Y INVX1_85/A gnd AND2X2_10/A vdd OAI21X1
XOAI21X1_181 INVX4_11/A DFFSR_43/Q NAND2X1_103/Y gnd NOR2X1_51/A vdd OAI21X1
XOAI21X1_170 AND2X2_7/Y BUFX4_4/Y NAND2X1_95/Y gnd DFFSR_106/D vdd OAI21X1
XNAND2X1_12 BUFX4_165/Y wb_dat_i[19] gnd NAND2X1_12/Y vdd NAND2X1
XNAND2X1_67 DFFSR_139/Q AOI21X1_2/B gnd NAND2X1_67/Y vdd NAND2X1
XNAND2X1_45 AOI21X1_7/Y NOR2X1_10/Y gnd DFFSR_71/D vdd NAND2X1
XNAND2X1_34 wb_adr_i[4] wb_adr_i[3] gnd NAND2X1_34/Y vdd NAND2X1
XNAND2X1_56 NAND2X1_56/A NOR2X1_16/Y gnd DFFSR_77/D vdd NAND2X1
XNAND2X1_78 AND2X2_8/B NOR2X1_24/Y gnd OR2X2_4/A vdd NAND2X1
XNAND2X1_89 INVX1_70/Y AND2X2_5/B gnd AND2X2_6/A vdd NAND2X1
XNAND2X1_23 BUFX4_9/Y wb_dat_i[14] gnd OAI21X1_45/C vdd NAND2X1
XFILL_33_6_0 gnd vdd FILL
XAOI21X1_205 BUFX4_31/Y AOI21X1_205/B BUFX4_203/Y gnd AOI21X1_206/A vdd AOI21X1
XAOI21X1_216 INVX2_154/Y AOI21X1_216/B BUFX4_34/Y gnd OAI21X1_614/C vdd AOI21X1
XAOI22X1_10 BUFX4_25/Y INVX1_13/A INVX2_89/A INVX8_6/Y gnd NAND3X1_90/C vdd AOI22X1
XAOI21X1_238 BUFX4_32/Y AOI21X1_238/B BUFX4_206/Y gnd AOI21X1_239/A vdd AOI21X1
XAOI22X1_43 AOI22X1_43/A AOI21X1_61/Y AOI22X1_43/C AOI22X1_43/D gnd AOI22X1_43/Y vdd
+ AOI22X1
XAOI22X1_54 NOR2X1_190/Y AOI22X1_54/B AOI22X1_54/C NOR2X1_191/Y gnd AOI21X1_85/B vdd
+ AOI22X1
XAOI22X1_32 BUFX4_21/Y INVX1_8/A DFFSR_243/Q INVX8_6/Y gnd AOI22X1_32/Y vdd AOI22X1
XAOI22X1_21 BUFX4_21/Y INVX1_3/A INVX2_69/A INVX8_5/Y gnd NAND3X1_96/C vdd AOI22X1
XAOI21X1_249 NOR2X1_325/Y BUFX4_57/Y AOI21X1_249/C gnd OAI21X1_740/A vdd AOI21X1
XAOI22X1_76 INVX2_67/A INVX8_14/A INVX8_23/A INVX1_94/A gnd AOI22X1_76/Y vdd AOI22X1
XAOI22X1_65 INVX1_54/A INVX8_17/A INVX8_23/A INVX1_97/A gnd AOI22X1_65/Y vdd AOI22X1
XAOI21X1_227 INVX2_97/Y OAI21X1_628/B BUFX4_34/Y gnd AOI21X1_227/Y vdd AOI21X1
XFILL_24_6_0 gnd vdd FILL
XNAND3X1_209 OAI21X1_314/Y OAI21X1_315/Y AOI22X1_68/Y gnd AOI22X1_77/C vdd NAND3X1
XOAI22X1_5 BUFX4_78/Y INVX2_11/Y INVX1_30/Y OAI22X1_1/D gnd NOR2X1_6/A vdd OAI22X1
XFILL_15_6_0 gnd vdd FILL
XDFFSR_229 AOI22X1_4/C CLKBUF1_6/Y BUFX4_130/Y vdd DFFSR_229/D gnd vdd DFFSR
XDFFSR_218 INVX1_43/A DFFSR_8/CLK DFFSR_151/R vdd DFFSR_218/D gnd vdd DFFSR
XDFFSR_207 INVX2_110/A CLKBUF1_26/Y DFFSR_194/R vdd DFFSR_207/D gnd vdd DFFSR
XINVX2_14 DFFSR_6/Q gnd INVX2_14/Y vdd INVX2
XINVX2_36 INVX2_36/A gnd INVX2_36/Y vdd INVX2
XINVX2_58 INVX1_41/A gnd INVX2_58/Y vdd INVX2
XINVX2_47 INVX2_47/A gnd INVX2_47/Y vdd INVX2
XINVX2_69 INVX2_69/A gnd INVX2_69/Y vdd INVX2
XINVX2_25 DFFSR_57/Q gnd INVX2_25/Y vdd INVX2
XFILL_30_4_0 gnd vdd FILL
XNAND2X1_219 BUFX4_165/Y wb_dat_i[20] gnd NAND2X1_219/Y vdd NAND2X1
XNAND2X1_208 BUFX4_73/Y wb_dat_i[26] gnd OAI21X1_572/C vdd NAND2X1
XBUFX4_181 AND2X2_1/Y gnd BUFX4_181/Y vdd BUFX4
XNOR2X1_263 INVX4_8/Y INVX1_136/Y gnd NOR2X1_263/Y vdd NOR2X1
XNOR2X1_252 INVX4_7/Y INVX1_137/Y gnd NOR2X1_252/Y vdd NOR2X1
XNOR2X1_274 INVX4_9/Y OR2X2_17/A gnd NOR2X1_274/Y vdd NOR2X1
XNOR2X1_230 INVX1_28/A BUFX4_241/Y gnd NOR2X1_230/Y vdd NOR2X1
XBUFX4_170 INVX8_19/Y gnd BUFX4_170/Y vdd BUFX4
XNOR2X1_285 INVX1_52/A BUFX4_118/Y gnd NOR2X1_285/Y vdd NOR2X1
XNOR2X1_241 BUFX4_148/Y NOR2X1_224/A gnd INVX1_134/A vdd NOR2X1
XBUFX4_192 BUFX4_193/A gnd BUFX4_192/Y vdd BUFX4
XOAI21X1_714 OAI21X1_714/A BUFX4_208/Y OAI21X1_714/C gnd DFFSR_122/D vdd OAI21X1
XFILL_21_4_0 gnd vdd FILL
XOAI21X1_725 NOR2X1_321/Y OAI21X1_725/B OAI21X1_725/C gnd DFFSR_119/D vdd OAI21X1
XOAI21X1_747 NOR2X1_327/Y INVX2_128/Y BUFX4_51/Y gnd AOI21X1_251/C vdd OAI21X1
XNOR2X1_296 INVX8_22/Y NOR2X1_296/B gnd INVX1_141/A vdd NOR2X1
XOAI21X1_758 BUFX4_167/Y OAI21X1_758/B BUFX4_38/Y gnd OAI21X1_759/B vdd OAI21X1
XOAI21X1_736 BUFX4_99/Y INVX4_6/Y INVX1_112/A gnd NOR2X1_329/B vdd OAI21X1
XOAI21X1_769 BUFX4_62/Y AOI21X1_258/B OAI21X1_769/C gnd AOI21X1_260/B vdd OAI21X1
XOAI21X1_703 INVX1_146/Y OR2X2_18/B MUX2X1_2/A gnd OAI21X1_704/C vdd OAI21X1
XFILL_29_5_0 gnd vdd FILL
XFILL_4_5_0 gnd vdd FILL
XINVX8_1 INVX8_1/A gnd INVX8_1/Y vdd INVX8
XFILL_12_4_0 gnd vdd FILL
XBUFX4_32 BUFX4_32/A gnd BUFX4_32/Y vdd BUFX4
XBUFX4_10 wb_sel_i[1] gnd BUFX4_10/Y vdd BUFX4
XBUFX4_21 INVX8_1/Y gnd BUFX4_21/Y vdd BUFX4
XBUFX4_43 BUFX4_45/A gnd BUFX4_43/Y vdd BUFX4
XBUFX4_98 BUFX4_98/A gnd BUFX4_98/Y vdd BUFX4
XBUFX4_76 BUFX4_78/A gnd BUFX4_76/Y vdd BUFX4
XBUFX4_65 BUFX4_61/A gnd BUFX4_65/Y vdd BUFX4
XBUFX4_87 INVX8_8/Y gnd BUFX4_87/Y vdd BUFX4
XBUFX4_54 BUFX4_52/A gnd BUFX4_54/Y vdd BUFX4
XXNOR2X1_8 XNOR2X1_8/A INVX2_43/Y gnd XNOR2X1_8/Y vdd XNOR2X1
XOR2X2_13 OR2X2_12/A OR2X2_13/B gnd OR2X2_13/Y vdd OR2X2
XOR2X2_6 OR2X2_6/A OR2X2_6/B gnd OR2X2_6/Y vdd OR2X2
XINVX8_13 INVX8_13/A gnd INVX8_13/Y vdd INVX8
XINVX8_24 wb_rst_i gnd INVX8_24/Y vdd INVX8
XOAI21X1_588 BUFX4_121/Y OAI21X1_588/B BUFX4_114/Y gnd OAI21X1_589/B vdd OAI21X1
XOAI21X1_599 INVX2_78/Y BUFX4_165/Y NAND2X1_224/Y gnd OAI21X1_599/Y vdd OAI21X1
XOAI21X1_555 INVX2_106/Y BUFX4_83/Y OAI21X1_732/C gnd OAI21X1_556/B vdd OAI21X1
XOAI21X1_544 NOR2X1_263/Y INVX2_73/Y BUFX4_170/Y gnd AOI21X1_186/C vdd OAI21X1
XOAI21X1_533 INVX8_21/A BUFX4_33/Y INVX1_36/A gnd OAI21X1_533/Y vdd OAI21X1
XOAI21X1_577 MUX2X1_1/B BUFX4_70/Y OAI21X1_458/C gnd OAI21X1_577/Y vdd OAI21X1
XOAI21X1_566 AND2X2_29/Y INVX2_109/Y BUFX4_119/Y gnd AOI21X1_196/C vdd OAI21X1
XINVX1_8 INVX1_8/A gnd INVX1_8/Y vdd INVX1
XOAI21X1_511 INVX2_72/Y BUFX4_5/Y NAND2X1_236/Y gnd OAI21X1_512/B vdd OAI21X1
XOAI21X1_522 OAI21X1_522/A OAI21X1_522/B OAI21X1_522/C gnd DFFSR_188/D vdd OAI21X1
XOAI21X1_500 BUFX4_166/Y OAI21X1_500/B BUFX4_39/Y gnd OAI21X1_501/B vdd OAI21X1
XFILL_9_1 gnd vdd FILL
XFILL_35_3_0 gnd vdd FILL
XFILL_26_3_0 gnd vdd FILL
XFILL_1_3_0 gnd vdd FILL
XOAI21X1_330 OAI21X1_330/A OAI21X1_329/Y OAI21X1_330/C gnd DFFSR_241/D vdd OAI21X1
XOAI21X1_341 BUFX4_224/Y BUFX4_231/Y INVX2_67/A gnd OAI21X1_341/Y vdd OAI21X1
XOAI21X1_374 OAI21X1_374/A OAI21X1_373/Y OAI21X1_374/C gnd DFFSR_230/D vdd OAI21X1
XOAI21X1_363 INVX2_162/Y BUFX4_164/Y NAND2X1_216/Y gnd OAI21X1_364/B vdd OAI21X1
XOAI21X1_396 BUFX4_223/Y BUFX4_234/Y INVX1_50/A gnd OAI21X1_400/C vdd OAI21X1
XOAI21X1_352 NOR2X1_210/Y INVX2_165/Y BUFX4_56/Y gnd OAI21X1_352/Y vdd OAI21X1
XAND2X2_8 AND2X2_8/A AND2X2_8/B gnd AND2X2_8/Y vdd AND2X2
XOAI21X1_385 NOR2X1_219/Y INVX2_153/Y BUFX4_56/Y gnd AOI21X1_127/C vdd OAI21X1
XFILL_9_4_0 gnd vdd FILL
XFILL_17_3_0 gnd vdd FILL
XAOI22X1_3 DFFSR_165/Q AOI22X1_1/B INVX8_5/Y AOI22X1_3/D gnd AOI22X1_3/Y vdd AOI22X1
XOAI21X1_182 INVX8_9/Y DFFSR_33/Q INVX2_44/Y gnd OAI21X1_183/C vdd OAI21X1
XOAI21X1_160 OR2X2_4/Y NAND2X1_86/Y BUFX4_97/Y gnd BUFX4_1/A vdd OAI21X1
XOAI21X1_171 AOI21X1_22/Y BUFX4_4/Y NAND2X1_96/Y gnd DFFSR_107/D vdd OAI21X1
XOAI21X1_193 AND2X2_10/Y NOR2X1_59/Y BUFX4_248/Y gnd OAI21X1_194/C vdd OAI21X1
XNAND2X1_13 BUFX4_160/Y wb_dat_i[20] gnd NAND2X1_13/Y vdd NAND2X1
XNAND2X1_46 NAND2X1_46/A NAND2X1_46/B gnd AOI21X1_8/C vdd NAND2X1
XNAND2X1_35 INVX2_39/Y NOR2X1_3/Y gnd NOR2X1_19/B vdd NAND2X1
XNAND2X1_57 NAND2X1_57/A NOR2X1_17/Y gnd DFFSR_78/D vdd NAND2X1
XNAND2X1_68 INVX1_120/A BUFX4_190/Y gnd NAND3X1_94/B vdd NAND2X1
XNAND2X1_79 INVX1_78/A NOR2X1_26/Y gnd OR2X2_4/B vdd NAND2X1
XNAND2X1_24 BUFX4_11/Y wb_dat_i[15] gnd OAI21X1_47/C vdd NAND2X1
XFILL_33_6_1 gnd vdd FILL
XFILL_32_1_0 gnd vdd FILL
XAOI21X1_239 AOI21X1_239/A OAI21X1_638/Y NOR2X1_292/Y gnd DFFSR_151/D vdd AOI21X1
XAOI21X1_228 BUFX4_31/Y AOI21X1_228/B BUFX4_203/Y gnd AOI21X1_229/A vdd AOI21X1
XAOI21X1_206 AOI21X1_206/A AOI21X1_206/B NOR2X1_277/Y gnd DFFSR_168/D vdd AOI21X1
XAOI21X1_217 BUFX4_34/Y AOI21X1_217/B BUFX4_210/Y gnd AOI21X1_218/A vdd AOI21X1
XAOI22X1_66 AOI21X1_94/Y AOI22X1_66/B AOI22X1_66/C AOI22X1_66/D gnd AOI22X1_66/Y vdd
+ AOI22X1
XAOI22X1_11 INVX8_6/Y DFFSR_233/Q INVX2_160/A INVX8_5/Y gnd AOI22X1_11/Y vdd AOI22X1
XNOR3X1_1 wb_adr_i[4] wb_adr_i[3] INVX4_1/Y gnd NOR3X1_1/Y vdd NOR3X1
XAOI22X1_55 AOI21X1_86/Y AOI22X1_55/B AOI22X1_55/C AOI22X1_55/D gnd AOI22X1_55/Y vdd
+ AOI22X1
XAOI22X1_22 INVX2_68/A BUFX4_124/Y INVX8_6/Y INVX2_67/A gnd NAND3X1_96/A vdd AOI22X1
XAOI22X1_33 INVX1_69/Y BUFX4_2/Y OR2X2_5/Y AOI21X1_24/Y gnd DFFSR_111/D vdd AOI22X1
XAOI22X1_77 AOI22X1_77/A INVX1_111/A AOI22X1_77/C INVX1_122/A gnd AOI22X1_77/Y vdd
+ AOI22X1
XAOI22X1_44 AOI22X1_44/A AOI21X1_63/Y AOI21X1_64/Y AOI22X1_44/D gnd AOI22X1_44/Y vdd
+ AOI22X1
XFILL_24_6_1 gnd vdd FILL
XFILL_23_1_0 gnd vdd FILL
XOAI22X1_6 OAI22X1_4/A INVX2_33/Y OAI22X1_4/C INVX1_31/Y gnd NOR2X1_6/B vdd OAI22X1
XFILL_6_2_0 gnd vdd FILL
XFILL_15_6_1 gnd vdd FILL
XFILL_14_1_0 gnd vdd FILL
XDFFSR_219 INVX1_44/A CLKBUF1_37/Y DFFSR_198/R vdd DFFSR_219/D gnd vdd DFFSR
XDFFSR_208 INVX2_83/A CLKBUF1_24/Y DFFSR_194/R vdd DFFSR_208/D gnd vdd DFFSR
XINVX2_15 DFFSR_7/Q gnd INVX2_15/Y vdd INVX2
XINVX2_26 INVX2_26/A gnd INVX2_26/Y vdd INVX2
XINVX2_48 INVX2_48/A gnd INVX2_48/Y vdd INVX2
XINVX2_37 INVX2_37/A gnd INVX2_37/Y vdd INVX2
XINVX2_59 INVX1_42/A gnd INVX2_59/Y vdd INVX2
XFILL_30_4_1 gnd vdd FILL
XNAND2X1_209 INVX1_125/Y NOR2X1_191/Y gnd NOR2X1_239/B vdd NAND2X1
XBUFX4_160 wb_sel_i[2] gnd BUFX4_160/Y vdd BUFX4
XBUFX4_193 BUFX4_193/A gnd AOI21X1_1/B vdd BUFX4
XNOR2X1_275 DFFSR_169/Q BUFX4_114/Y gnd NOR2X1_275/Y vdd NOR2X1
XNOR2X1_264 INVX4_8/Y INVX1_137/Y gnd NOR2X1_264/Y vdd NOR2X1
XNOR2X1_231 INVX1_26/A BUFX4_241/Y gnd NOR2X1_231/Y vdd NOR2X1
XBUFX4_171 INVX8_19/Y gnd BUFX4_171/Y vdd BUFX4
XNOR2X1_253 BUFX4_152/Y INVX1_129/A gnd AND2X2_27/A vdd NOR2X1
XBUFX4_182 AND2X2_1/Y gnd BUFX4_182/Y vdd BUFX4
XNOR2X1_297 INVX1_141/Y BUFX4_63/Y gnd NOR2X1_297/Y vdd NOR2X1
XNOR2X1_286 INVX1_51/A BUFX4_117/Y gnd NOR2X1_286/Y vdd NOR2X1
XNOR2X1_242 INVX4_7/Y INVX1_134/Y gnd NOR2X1_242/Y vdd NOR2X1
XNOR2X1_220 OR2X2_12/A INVX1_124/Y gnd NOR2X1_220/Y vdd NOR2X1
XOAI21X1_715 INVX1_102/Y BUFX4_84/Y NAND2X1_240/Y gnd OAI21X1_715/Y vdd OAI21X1
XOAI21X1_726 INVX2_74/Y BUFX4_79/Y NAND2X1_244/Y gnd NAND2X1_322/B vdd OAI21X1
XFILL_21_4_1 gnd vdd FILL
XOAI21X1_748 INVX2_128/Y BUFX4_162/Y NAND2X1_330/Y gnd OAI21X1_749/B vdd OAI21X1
XOAI21X1_737 NOR2X1_325/Y INVX2_127/Y BUFX4_168/Y gnd AOI21X1_249/C vdd OAI21X1
XOAI21X1_759 OAI21X1_759/A OAI21X1_759/B OAI21X1_755/Y gnd DFFSR_195/D vdd OAI21X1
XOAI21X1_704 BUFX4_64/Y OAI21X1_704/B OAI21X1_704/C gnd OAI21X1_706/A vdd OAI21X1
XFILL_29_5_1 gnd vdd FILL
XFILL_28_0_0 gnd vdd FILL
XFILL_3_0_0 gnd vdd FILL
XFILL_4_5_1 gnd vdd FILL
XINVX8_2 INVX8_2/A gnd INVX8_2/Y vdd INVX8
XFILL_12_4_1 gnd vdd FILL
XBUFX4_33 BUFX4_32/A gnd BUFX4_33/Y vdd BUFX4
XBUFX4_66 BUFX4_61/A gnd BUFX4_66/Y vdd BUFX4
XBUFX4_77 BUFX4_78/A gnd BUFX4_77/Y vdd BUFX4
XBUFX4_11 wb_sel_i[1] gnd BUFX4_11/Y vdd BUFX4
XBUFX4_22 INVX8_1/Y gnd BUFX4_22/Y vdd BUFX4
XBUFX4_44 BUFX4_45/A gnd BUFX4_44/Y vdd BUFX4
XBUFX4_55 BUFX4_52/A gnd BUFX4_55/Y vdd BUFX4
XFILL_19_0_0 gnd vdd FILL
XBUFX4_88 INVX8_8/Y gnd DFFSR_98/R vdd BUFX4
XBUFX4_99 BUFX4_98/A gnd BUFX4_99/Y vdd BUFX4
XOR2X2_14 OR2X2_14/A INVX4_7/Y gnd OR2X2_14/Y vdd OR2X2
XOR2X2_7 OR2X2_7/A OR2X2_7/B gnd OR2X2_7/Y vdd OR2X2
XINVX2_160 INVX2_160/A gnd INVX2_160/Y vdd INVX2
XXNOR2X1_9 XNOR2X1_9/A OR2X2_9/B gnd INVX1_105/A vdd XNOR2X1
XINVX1_9 INVX1_9/A gnd INVX1_9/Y vdd INVX1
XOAI21X1_523 BUFX4_206/Y BUFX4_32/Y INVX1_42/A gnd OAI21X1_523/Y vdd OAI21X1
XINVX8_14 INVX8_14/A gnd INVX8_14/Y vdd INVX8
XOAI21X1_512 BUFX4_222/Y OAI21X1_512/B BUFX4_49/Y gnd AOI21X1_179/A vdd OAI21X1
XOAI21X1_501 AOI21X1_174/Y OAI21X1_501/B OAI21X1_497/Y gnd DFFSR_193/D vdd OAI21X1
XOAI21X1_589 OAI21X1_589/A OAI21X1_589/B NAND2X1_264/Y gnd DFFSR_170/D vdd OAI21X1
XOAI21X1_556 BUFX4_171/Y OAI21X1_556/B BUFX4_36/Y gnd OAI21X1_557/B vdd OAI21X1
XOAI21X1_545 INVX2_73/Y BUFX4_81/Y NAND2X1_244/Y gnd OAI21X1_546/B vdd OAI21X1
XOAI21X1_534 NOR2X1_261/Y INVX2_95/Y BUFX4_166/Y gnd AOI21X1_184/C vdd OAI21X1
XOAI21X1_578 BUFX4_123/Y OAI21X1_577/Y BUFX4_116/Y gnd OAI21X1_578/Y vdd OAI21X1
XOAI21X1_567 INVX2_109/Y MUX2X1_7/S OAI21X1_567/C gnd OAI21X1_568/B vdd OAI21X1
XFILL_9_2 gnd vdd FILL
XFILL_35_3_1 gnd vdd FILL
XNAND3X1_190 OAI21X1_277/Y XNOR2X1_10/Y INVX1_108/A gnd AOI21X1_45/B vdd NAND3X1
XFILL_26_3_1 gnd vdd FILL
XFILL_1_3_1 gnd vdd FILL
XOAI21X1_364 BUFX4_51/Y OAI21X1_364/B BUFX4_243/Y gnd OAI21X1_365/B vdd OAI21X1
XOAI21X1_331 BUFX4_224/Y BUFX4_231/Y INVX2_81/A gnd OAI21X1_331/Y vdd OAI21X1
XOAI21X1_320 OAI21X1_320/A OAI21X1_319/Y OAI21X1_267/Y gnd DFFSR_243/D vdd OAI21X1
XOAI21X1_342 NOR2X1_208/Y INVX2_67/Y BUFX4_55/Y gnd AOI21X1_108/C vdd OAI21X1
XOAI21X1_353 INVX2_165/Y BUFX4_71/Y OAI21X1_353/C gnd OAI21X1_354/B vdd OAI21X1
XAND2X2_9 OR2X2_8/A OR2X2_8/B gnd AND2X2_9/Y vdd AND2X2
XOAI21X1_375 BUFX4_220/Y BUFX4_230/Y AOI22X1_4/C gnd OAI21X1_379/C vdd OAI21X1
XOAI21X1_397 NOR2X1_222/Y INVX2_70/Y BUFX4_56/Y gnd AOI21X1_132/C vdd OAI21X1
XFILL_9_4_1 gnd vdd FILL
XOAI21X1_386 INVX2_153/Y BUFX4_6/Y NAND2X1_232/Y gnd OAI21X1_387/B vdd OAI21X1
XFILL_17_3_1 gnd vdd FILL
XOAI21X1_150 BUFX4_93/Y BUFX4_103/Y INVX1_16/A gnd BUFX2_26/A vdd OAI21X1
XOAI21X1_194 INVX2_18/A INVX1_107/A OAI21X1_194/C gnd INVX4_4/A vdd OAI21X1
XAOI22X1_4 BUFX4_25/Y INVX1_10/A AOI22X1_4/C INVX8_6/Y gnd AOI22X1_4/Y vdd AOI22X1
XOAI21X1_183 INVX1_81/Y INVX8_9/Y OAI21X1_183/C gnd INVX1_82/A vdd OAI21X1
XOAI21X1_172 NOR2X1_43/Y AND2X2_8/A NOR2X1_46/B gnd OAI21X1_173/C vdd OAI21X1
XOAI21X1_161 XOR2X1_1/A BUFX4_3/Y NAND2X1_87/Y gnd DFFSR_100/D vdd OAI21X1
XNAND2X1_14 BUFX4_162/Y wb_dat_i[21] gnd OAI21X1_27/C vdd NAND2X1
XNAND2X1_25 wb_dat_i[0] BUFX4_79/Y gnd NAND2X1_25/Y vdd NAND2X1
XNAND2X1_36 NAND3X1_69/Y NAND3X1_70/Y gnd AOI21X1_1/C vdd NAND2X1